      90
<yaff.system.System object at 0x7eff6837e1d0>
 C  2.406280000 -1.304070000 -0.188810000
 C  1.203390000 -0.548970000 -0.106440000
 C -0.027230000 -1.203660000 -0.047250000
 H -0.068540000 -2.290310000 -0.082140000
 C -1.205400000 -0.462500000  0.059980000
 C -2.456090000 -1.145820000  0.109240000
 C -1.153500000  0.928000000  0.109830000
 H -2.069380000  1.508030000  0.195200000
 C  0.083700000  1.572160000  0.044410000
 C  0.148000000  2.991420000  0.079300000
 C  1.263040000  0.839400000 -0.064700000
 H  2.222880000  1.348280000 -0.114060000
 C  0.175490000  4.190400000  0.090480000
 C  0.127670000  5.611430000  0.085080000
 C -3.456150000 -1.808590000  0.128860000
 C -4.564140000 -2.707110000  0.127640000
 C  3.394430000 -1.983070000 -0.219750000
 C  4.502070000 -2.877030000 -0.213360000
 C -1.117180000  6.242170000  0.077500000
 C -1.189510000  7.632000000  0.064410000
 H -2.030180000  5.651340000  0.079790000
 C -0.016980000  8.387360000  0.058750000
 H -2.159150000  8.121460000  0.057590000
 C  1.227970000  7.755110000  0.065810000
 C  1.302670000  6.362820000  0.078900000
 H  2.139400000  8.346740000  0.060060000
 H  2.273040000  5.872360000  0.082380000
 C  4.252440000 -4.250540000 -0.198640000
 C  5.314610000 -5.149730000 -0.169460000
 H  3.229840000 -4.620520000 -0.204530000
 C  6.625220000 -4.673790000 -0.155500000
 H  5.116950000 -6.217720000 -0.154560000
 C  6.874820000 -3.299950000 -0.171320000
 C  5.811540000 -2.397060000 -0.200240000
 H  7.897730000 -2.933230000 -0.157900000
 H  6.009820000 -1.328100000 -0.207300000
 C -4.315700000 -4.082170000  0.120760000
 C -5.377930000 -4.983700000  0.105750000
 H -3.293760000 -4.454150000  0.124030000
 C -6.689040000 -4.509870000  0.098020000
 H -5.180530000 -6.052100000  0.098250000
 C -6.938440000 -3.136120000  0.105990000
 C -5.875190000 -2.231340000  0.120820000
 H -7.961900000 -2.770510000  0.098710000
 H -6.075870000 -1.163000000  0.123970000
 B -0.029940661  9.963116120  0.099250268
 O -1.188190136  10.638162596  0.082572794
 O  1.118488590  10.655733887  0.117918598
Si -1.787284133  12.110971687 -0.082115732
Si  1.698461194  12.140101333 -0.003340389
 O -1.234243887  12.986530200  1.135301326
 O -1.172125592  12.731239298 -1.421342510
 H -3.256396952  12.094360513 -0.120776516
 O  1.135692232  12.761884265 -1.364203736
 O  1.074526303  12.995351061  1.194643658
 H  3.167855155  12.148649865  0.028517646
 B -0.095769577  13.381800790  1.721526899
 H -0.125892249  13.819254630  2.817470591
 B -0.006203280  13.016468386 -2.017953825
 H  0.020795215  13.187483603 -3.185567522
 B  7.922819924 -5.568584684 -0.135688099
 O  9.140455680 -5.008284665 -0.166262323
 O  7.830165662 -6.906552964 -0.121069911
Si  10.687809946 -5.363374183 -0.352833372
Si  8.710205026 -8.233529032 -0.259214443
 O  11.102768924 -6.323835909  0.855422741
 O  10.824337499 -6.217936868 -1.697364200
 H  11.517678030 -4.151198599 -0.397692923
 O  9.524380974 -8.124734069 -1.630547061
 O  9.784433304 -8.218883767  0.924733084
 H  7.873486895 -9.441276061 -0.221050218
 B  10.779987026 -7.485073858  1.441393123
 H  11.169803829 -7.716049904  2.531374196
 B  10.380084532 -7.333759287 -2.292557583
 H  10.489093386 -7.449497867 -3.462180821
 B -7.990815881 -5.397681585  0.142581715
 O -7.906903640 -6.735692050  0.128636801
 O -9.205443817 -4.829123835  0.162041474
Si -8.797227979 -8.053569650 -0.031749456
Si -10.761619954 -5.173832553  0.044099070
 O -9.830428073 -8.078891024  1.187437530
 O -9.657157431 -7.890667671 -1.369906616
 H -7.965717857 -9.264871573 -0.069187816
 O -10.967156530 -5.990383732 -1.314676429
 O -11.122823304 -6.165662972  1.244814349
 H -11.586599809 -3.957823669  0.074713739
 B -10.791553899 -7.351869461  1.773696697
 H -11.136385480 -7.618046816  2.870786761
 B -10.544104133 -7.082128556 -1.966786485
 H -10.703137103 -7.157399626 -3.133979549
