     108
CELL: None
 C  2.471072885 -1.447983737  0.000000000
 C  1.244981200 -0.731861535  0.000000000
 C  0.011768466 -1.444113526  0.000000000
 C  0.019367650 -2.863979797  0.000000000
 C  1.222601899 -3.512494589  0.000000000
 C  2.431523371 -2.814285618  0.000000000
 C  1.244742721  0.732175417  0.000000000
 C  0.011315046  1.444047183  0.000000000
 C -1.256464853  0.711818113  0.000000000
 C -1.256258818 -0.712293589  0.000000000
 C -2.489489988 -1.416049634  0.000000000
 C -3.652971849 -0.698637192  0.000000000
 C -3.653150288  0.697425990  0.000000000
 C -2.489897518  1.415190298  0.000000000
 C  0.018457322  2.863925017  0.000000000
 C  1.221480837  3.512833511  0.000000000
 C  2.430599941  2.814978565  0.000000000
 C  2.470581560  1.448690861  0.000000000
 O -4.954678057  1.146449298  0.000000000
 B -5.749565032 -0.000860429  0.000000000
 O -4.954408875 -1.147999110  0.000000000
 O  3.470211811  3.717645512  0.000000000
 B  2.874035212  4.979692179  0.000000000
 O  1.483010580  4.864587564  0.000000000
 O  1.484532171 -4.864160550  0.000000000
 B  2.875582166 -4.978863990  0.000000000
 O  3.471418801 -3.716656670  0.000000000
 C -7.287653038 -0.000817668  0.000000000
 C -8.000195493  1.207728511  0.000000000
 C -9.399513549  1.233863023  0.000000000
 C -10.115186035 -0.000214485  0.000000000
 C -9.400042621 -1.234609327  0.000000000
 C -8.000689321 -1.209092174  0.000000000
 C  3.643074484  6.311724110  0.000000000
 C  5.045977102  6.324550571  0.000000000
 C  5.768250438  7.523345920  0.000000000
 C  5.057305383  8.760152809  0.000000000
 C  3.630720075  8.757997258  0.000000000
 C  2.953164990  7.533350333  0.000000000
 C  3.644618840 -6.310895365  0.000000000
 C  2.954248190 -7.532247157  0.000000000
 C  3.631287474 -8.757156184  0.000000000
 C  5.057861718 -8.759902667  0.000000000
 C  5.769314666 -7.523373914  0.000000000
 C  5.047528295 -6.324265239  0.000000000
 H -2.537195916  2.493456764  0.000000000
 H  3.428034377  0.950514997  0.000000000
 H -0.890789951 -3.444067774  0.000000000
 H -0.891889756  3.443716660  0.000000000
 H -2.536441315 -2.494332404  0.000000000
 H  3.428377030 -0.949502051  0.000000000
 H  5.590211306 -5.384627443  0.000000000
 C  5.769814739 -9.993696897  0.000000000
 H -7.458285911 -2.148892206  0.000000000
 C -11.539655249  0.000127256  0.000000000
 H -7.457404513  2.147304378  0.000000000
 H  1.868073525  7.533502577  0.000000000
 H  5.588284149  5.384699199  0.000000000
 C  5.769812093  9.993628156  0.000000000
 H  1.869157274 -7.531962724  0.000000000
 C  5.057178307  11.229526712  0.000000000
 C  5.780653505  12.430840151  0.000000000
 C  7.172744112  12.422372575  0.000000000
 C  7.875605218  11.220718029  0.000000000
 C  7.196447494  9.993812733  0.000000000
 H  5.242896736  13.372980638  0.000000000
 H  7.715077724  13.361259892  0.000000000
 H  8.960403307  11.225607203  0.000000000
 C  7.196447494 -9.994525112  0.000000000
 C  7.875064981 -11.221733308  0.000000000
 C  7.171663955 -12.423073735  0.000000000
 C  5.779570279 -12.430911378  0.000000000
 C  5.056629910 -11.229283397  0.000000000
 H  8.959861906 -11.227103980  0.000000000
 H  7.713578565 -13.362200504  0.000000000
 H  5.241394407 -13.372814106  0.000000000
 C -12.253698716 -1.234958531  0.000000000
 C -13.655798974 -1.209038325  0.000000000
 C -14.344493000  0.000792520  0.000000000
 C -13.655226351  1.210297460  0.000000000
 C -12.253117467  1.235551701  0.000000000
 H -14.202856233 -2.145812003  0.000000000
 H -15.428758526  0.001045243  0.000000000
 H -14.201838625  2.147329524  0.000000000
 C  7.205331691  7.555766650  0.000000000
 C  7.885021820  8.732315018  0.000000000
 H  7.741293798  6.612479171  0.000000000
 H  8.970003481  8.738145546  0.000000000
 C  3.620386874  11.195678898  0.000000000
 C  2.940799876  10.019064964  0.000000000
 H  3.083330767  12.138437728  0.000000000
 H  1.855905206  10.012056594  0.000000000
 C -11.504873754  2.462600271  0.000000000
 C -10.146111363  2.462214882  0.000000000
 H -12.052383513  3.399322349  0.000000000
 H -9.597168751  3.398006851  0.000000000
 C -11.506010956 -2.462347161  0.000000000
 C -10.147241685 -2.462610596  0.000000000
 H -12.053951041 -3.398819514  0.000000000
 H -9.598753954 -3.398667249  0.000000000
 C  7.206390575 -7.556457438  0.000000000
 C  7.885554172 -8.733316275  0.000000000
 C  3.619855061 -11.194818614  0.000000000
 C  2.940799855 -10.017904531  0.000000000
 H  1.855910223 -10.010394131  0.000000000
 H  3.082389774 -12.137341432  0.000000000
 H  7.742793909 -6.613421213  0.000000000
 H  8.970533717 -8.739613854  0.000000000
