      48
<yaff.system.System object at 0x7f193a16d790>
 F  1.342850000 -2.363239000 -0.181050000
 C  0.684160000 -1.200169000 -0.092040000
 C -0.709070000 -1.188689000 -0.034700000
 F -1.391880000 -2.340709000 -0.068500000
 C -1.404610000  0.011571000  0.057810000
 C -0.684160000  1.200171000  0.092040000
 F -1.342850000  2.363241000  0.181050000
 C  0.709070000  1.188691000  0.034700000
 F  1.391880000  2.340711000  0.068500000
 C  1.404610000 -0.011579000 -0.057810000
 H -7.392700534 -2.516328187  0.030780713
 C -7.956721778 -1.598423759  0.189712496
 C -9.350449994 -1.667623582  0.271188644
 H -9.852354794 -2.627504152  0.176560820
 C -10.094330344 -0.508740270  0.474534416
 H -11.178591291 -0.560715118  0.537511455
 C -9.445665739  0.716696384  0.602848799
 H -10.026826476  1.621363372  0.767508143
 C -8.049991329  0.788050053  0.526497724
 H -7.599057005  1.765524038  0.651995335
 C -7.287997151 -0.369268777  0.310608548
 C -5.790429498 -0.370245492  0.284248515
 O -5.178360411 -1.397403067  0.569856383
 C -5.062996206  0.855566728 -0.153355642
 C -3.725064022  0.928414723 -0.202924475
 H -5.624569648  1.725470162 -0.457659705
 N -2.807501828 -0.038875113  0.106989165
 H -3.290653500  1.864851749 -0.537749975
 H -3.222267281 -0.929906852  0.394895440
 H  7.392700534  2.516328187 -0.030780713
 C  7.956721778  1.598423759 -0.189712496
 C  9.350449994  1.667623582 -0.271188644
 H  9.852354794  2.627504152 -0.176560820
 C  10.094330344  0.508740270 -0.474534416
 H  11.178591291  0.560715118 -0.537511455
 C  9.445665739 -0.716696384 -0.602848799
 H  10.026826476 -1.621363372 -0.767508143
 C  8.049991329 -0.788050053 -0.526497724
 H  7.599057005 -1.765524038 -0.651995335
 C  7.287997151  0.369268777 -0.310608548
 C  5.790429498  0.370245492 -0.284248515
 O  5.178360411  1.397403067 -0.569856383
 C  5.062996206 -0.855566728  0.153355642
 C  3.725064022 -0.928414723  0.202924475
 H  5.624569648 -1.725470162  0.457659705
 N  2.807501828  0.038875113 -0.106989165
 H  3.290653500 -1.864851749  0.537749975
 H  3.222267281  0.929906852 -0.394895440
