     118
<yaff.system.System object at 0x7eff68378f90>
 C  3.834450000  2.028850000  0.170710000
 C  4.206330000  0.766460000 -0.028510000
 C  3.061750000 -0.118750000 -0.027720000
 C  2.370940000  1.922770000  0.075610000
 N  1.928970000  0.690610000 -0.011520000
 C  1.610010000  3.228620000  0.050410000
 C  0.261520000  3.197680000  0.091160000
 N -0.610890000  2.132640000  0.135180000
 C -1.936010000  2.503710000  0.103780000
 C -0.610970000  4.367110000  0.089560000
 C -1.888450000  3.964100000  0.143740000
 C -3.061790000  1.761380000  0.025080000
 C -2.951580000  0.254180000 -0.012510000
 N -1.879610000 -0.503420000 -0.000070000
 C -3.782560000 -1.754340000  0.057960000
 C -4.212200000 -0.502070000 -0.047320000
 C -0.176010000 -3.028340000 -0.060020000
 N  0.671370000 -1.928970000 -0.029400000
 C  1.995920000 -2.349370000 -0.010440000
 C  1.965000000 -3.733700000  0.015910000
 C  0.639340000 -4.146480000 -0.126480000
 C  3.147630000 -1.476470000 -0.015980000
 C -1.620780000 -2.974640000 -0.017310000
 C -2.336100000 -1.819480000  0.013870000
 H  4.463900000  2.885230000  0.286010000
 H  5.237850000  0.476960000 -0.118110000
 C  2.358930000  4.521340000 -0.050440000
 H -0.306820000  1.166360000  0.052270000
 H -0.301730000  5.398590000  0.063860000
 H -2.734880000  4.629900000  0.185090000
 C -4.397420000  2.434930000 -0.006460000
 H -4.450990000 -2.596530000  0.127720000
 H -5.226140000 -0.160350000 -0.095230000
 H  0.368460000 -0.960990000 -0.016620000
 H  2.820260000 -4.392510000  0.077770000
 H  0.310690000 -5.174130000 -0.203890000
 C  4.531580000 -2.102480000 -0.035610000
 C -2.374400000 -4.291370000  0.032450000
 C -4.741190000  3.311750000 -1.050370000
 C -5.977000000  3.965120000 -1.062590000
 H -4.031900000  3.519110000 -1.850140000
 C -6.911260000  3.708380000 -0.062580000
 H -6.208570000  4.674480000 -1.853500000
 C -6.599060000  2.823450000  0.966560000
 C -5.340520000  2.215570000  1.011330000
 H -7.333480000  2.610180000  1.739570000
 H -5.112220000  1.548090000  1.840350000
 C  3.256720000  4.734290000 -1.112880000
 C  4.070410000  5.869650000 -1.151690000
 H  3.370520000  3.985610000 -1.895730000
 C  3.946060000  6.847820000 -0.169600000
 H  4.807020000  5.983140000 -1.943480000
 C  3.020070000  6.683940000  0.858240000
 C  2.251750000  5.517520000  0.933110000
 H  2.906760000  7.458130000  1.613260000
 H  1.565100000  5.396900000  1.768870000
 C  4.872220000 -3.027410000 -1.039010000
 C  6.122890000 -3.651820000 -1.053390000
 H  4.145120000 -3.295470000 -1.803690000
 C  7.080580000 -3.314800000 -0.101320000
 H  6.344820000 -4.401200000 -1.808820000
 C  6.772130000 -2.389760000  0.892460000
 C  5.494670000 -1.823420000  0.950700000
 H  7.522030000 -2.113930000  1.629310000
 H  5.266900000 -1.133430000  1.760630000
 C -3.297960000 -4.666250000 -0.957890000
 C -3.944920000 -5.905850000 -0.903880000
 H -3.528960000 -3.989670000 -1.777670000
 C -3.627980000 -6.818280000  0.100320000
 H -4.684150000 -6.165690000 -1.657210000
 C -2.689640000 -6.480600000  1.070970000
 C -2.091670000 -5.217730000  1.053630000
 H -2.411560000 -7.200630000  1.836380000
 H -1.358000000 -4.974810000  1.820860000
 N -8.262865226  4.273131560 -0.044507870
 B -9.238919190  4.160387660  1.137768753
 B -8.730740638  5.143881472 -1.221820289
 H -8.990520687  3.536289951  2.100536806
 N -10.594007247  4.861624002  1.156718123
 H -8.080873534  5.297173115 -2.187373016
 N -10.078317321  5.859636889 -1.232219034
 B -10.999309601  5.707922762 -0.035811023
 H -11.231369270  4.764534362  1.978568342
 H -10.365172205  6.440971745 -2.051272905
 H -12.045748681  6.256079101 -0.032707950
 N  4.622713107  7.992175771 -0.171071408
 B  4.506884810  9.018891756  0.967176647
 B  5.563030077  8.372393297 -1.326240647
 H  3.832061465  8.837921693  1.910567011
 N  5.269936243  10.340293819  0.965121448
 H  5.725674450  7.678090877 -2.258768721
 N  6.341443417  9.684461600 -1.356675925
 B  6.183531245  10.658558459 -0.203924807
 H  5.168796937  11.013801638  1.757114244
 H  6.969399327  9.911517940 -2.159920581
 H  6.779891673  11.678220136 -0.216733184
 N  8.325310806 -4.077237000 -0.089935605
 B  9.331373062 -3.888907381  1.057034854
 B  8.779726734 -4.991188299 -1.239447037
 H  9.095907672 -3.226469331  1.997169935
 N  10.702161390 -4.559104367  1.068457896
 H  8.106657198 -5.202951503 -2.177664173
 N  10.142516190 -5.677404534 -1.256448242
 B  11.093057741 -5.450690580 -0.095540137
 H  11.359981867 -4.410384181  1.866110111
 H  10.419472967 -6.289660509 -2.056149904
 H  12.151449020 -5.975401876 -0.097929404
 N -4.382922030 -8.213340780  0.149058846
 B -4.231676429 -9.190380568  1.326211582
 B -5.310111682 -8.670142091 -0.988846797
 H -3.563093474 -8.949870356  2.260702759
 N -4.949136072 -10.536129228  1.376880432
 H -5.496715379 -8.018652657 -1.947417728
 N -6.043253286 -10.008199430 -0.966873867
 B -5.851740990 -10.930689523  0.222651733
 H -4.824762148 -11.174426069  2.194317157
 H -6.663371577 -10.287674670 -1.759610947
 H -6.412920048 -11.969833183  0.250549202
