      90
<yaff.system.System object at 0x7eff68378ed0>
 C  4.027462051 -3.893913718  0.310066179
 C  2.672148051 -4.262318718  0.319743179
 C  1.678672051 -3.300991718  0.229140179
 C  2.003629051 -1.937063718  0.160580179
 C  3.355470051 -1.566913718  0.187692179
 C  4.354395051 -2.527048718  0.261396179
 C  0.941359051 -0.909939718  0.077892179
 N  1.312939051  0.376982282  0.037767179
 C  0.318010051  1.271410282 -0.038992821
 N -0.981642949  0.947974282 -0.075637821
 C -1.260558949 -0.362144718 -0.031325821
 N -0.332144949 -1.325265718  0.045418179
 C  0.676958051  2.706621282 -0.083768821
 C -0.317350949  3.691753282 -0.190296821
 C  0.018704051  5.034651282 -0.245812821
 C  1.360665051  5.440586282 -0.161808821
 C  2.359252051  4.454275282 -0.075031821
 C  2.018771051  3.109724282 -0.036659821
 C -2.682392949 -0.770638718 -0.066681821
 C -3.700649949  0.190456282 -0.135975821
 C -5.035099949 -0.188277718 -0.165449821
 C -5.391426949 -1.548090718 -0.125807821
 C -4.369830949 -2.511469718 -0.093439821
 C -3.039347949 -2.128166718 -0.047251821
 H  0.636350051 -3.590416718  0.220005179
 H  2.423007051 -5.314639718  0.386235179
 H  5.392662051 -2.220384718  0.316972179
 H  3.609547051 -0.515584718  0.158735179
 H -1.353435949  3.384405282 -0.238761821
 H -0.746394949  5.795773282 -0.341783821
 H  3.403496051  4.745260282 -0.073396821
 H  2.789534051  2.352613282  0.021499179
 H -3.429036949  1.237058282 -0.175087821
 H -5.807122949  0.567416282 -0.254919821
 H -4.647001949 -3.558870718 -0.092107821
 H -2.256291949 -2.873402718 -0.005591821
 H  10.379554397 -9.172785209  0.246464561
 C  9.373874688 -9.572770307  0.353209518
 C  9.188805931 -10.945013830  0.509831611
 H  10.046944998 -11.612335224  0.527960409
 C  7.902235152 -11.462907255  0.632042730
 H  7.751818435 -12.533880182  0.743248816
 C  6.800411688 -10.605375089  0.605371323
 H  5.799398187 -11.025222879  0.696451706
 C  6.971728929 -9.219852837  0.455332949
 C  5.740240143 -8.367477325  0.415177764
 C  8.271871465 -8.711452922  0.319367929
 H  8.466978218 -7.657202452  0.162099326
 O  4.642739348 -8.912182192  0.318948647
 N  5.928116147 -6.993653621  0.494168032
 H  6.838072268 -6.584903983  0.646851611
 N  4.848878387 -6.165412836  0.405230631
 C  5.105025671 -4.897245459  0.411285112
 H  6.138208649 -4.512255125  0.480548220
 H  2.790336266  13.535700319 -0.964787971
 C  3.629502907  12.880319041 -0.743317947
 C  4.901674914  13.421402345 -0.568273804
 H  5.053592030  14.494839388 -0.650147233
 C  5.981398538  12.584614726 -0.299207078
 H  6.977855881  13.000648664 -0.172860256
 C  5.785915537  11.205658356 -0.197455155
 H  6.640865971  10.562627136  0.007889522
 C  4.508681320  10.646775468 -0.364355402
 C  4.382704963  9.157420220 -0.261050099
 C  3.431232675  11.498597923 -0.648662445
 H  2.429710327  11.124740599 -0.825941323
 O  5.404250798  8.474777603 -0.230807810
 N  3.094492293  8.641674279 -0.202375869
 H  2.280559996  9.236390685 -0.155096959
 N  2.916707979  7.290507566 -0.165119250
 C  1.690329949  6.878902688 -0.186912233
 H  0.840604467  7.583150994 -0.236741249
 H -13.105034804 -4.419356375 -0.815513520
 C -12.959129691 -3.348361119 -0.695284149
 C -14.065181545 -2.503539793 -0.626295512
 H -15.069811040 -2.914334256 -0.689672491
 C -13.882718823 -1.130303683 -0.487214715
 H -14.742081661 -0.465763704 -0.444120358
 C -12.591917746 -0.603207751 -0.409175080
 H -12.464232516  0.473673238 -0.306123396
 C -11.468086420 -1.442744632 -0.470117649
 C -10.116185129 -0.800684243 -0.400530021
 C -11.664392677 -2.822988767 -0.624122696
 H -10.837992967 -3.517857705 -0.716126989
 O -10.033328410  0.422348884 -0.488825908
 N -9.029108435 -1.649026808 -0.234675930
 H -9.140706619 -2.641766159 -0.091766486
 N -7.769835400 -1.126811662 -0.221654089
 C -6.802115577 -1.981515376 -0.138608991
 H -6.988801492 -3.069089354 -0.085569254
