      36
<yaff.system.System object at 0x7eff68378f90>
 C -0.000000000  3.577958000 -0.000000182
 C  1.133739000  2.852350000 -0.402520182
 C  1.135339000  1.463226000 -0.401762182
 C -0.000000000  0.741600000 -0.000000182
 C -1.135339000  1.463225000  0.401761818
 C -1.133738000  2.852349000  0.402519818
 C -0.000000000 -0.741600000 -0.000000182
 C -1.135339000 -1.463226000 -0.401762182
 C -1.133739000 -2.852350000 -0.402520182
 C -0.000000000 -3.577958000 -0.000000182
 C  1.133738000 -2.852349000  0.402519818
 C  1.135339000 -1.463225000  0.401761818
 H -2.020512000 -3.385811000 -0.727052182
 H -2.020512000  3.385812000  0.727052818
 H  2.020512000 -3.385812000  0.727052818
 H  2.020512000  3.385811000 -0.727052182
 H -2.015826000 -0.929067000 -0.740072182
 H -2.015827000  0.929068000  0.740072818
 H  2.015826000  0.929067000 -0.740072182
 H  2.015827000 -0.929068000  0.740072818
 C  0.000003208  5.057809266 -0.000001392
 N -1.116436343  5.694529064  0.395072670
 C -1.054073771  7.022226617  0.373004380
 N  1.116524516  5.694481449 -0.395104451
 C  1.054235367  7.022131187 -0.373062278
 N  0.000084433  7.752717081 -0.000030272
 H  1.942950897  7.562293396 -0.687551776
 H -1.942787799  7.562392693  0.687493292
 C  0.000003208 -5.057809266  0.000000878
 N -1.116436366 -5.694529024 -0.395073185
 C -1.054073793 -7.022226580 -0.373005033
 N  1.116524538 -5.694481489  0.395103808
 C  1.054235389 -7.022131224  0.373061504
 N  0.000084433 -7.752717081  0.000029484
 H  1.942950936 -7.562293466  0.687550896
 H -1.942787838 -7.562392624 -0.687493949
