      96
<yaff.system.System object at 0x7f3bde001d90>
 C  5.413628598 -1.872546979 -0.010594081
 C  5.035722950 -0.755661278  0.753536436
 C  3.723673695 -0.300430655  0.759525264
 C  2.735803796 -0.944625681  0.000449131
 C  3.108315992 -2.059076085 -0.765208093
 C  4.420719166 -2.513357956 -0.770224134
 C  1.334053259 -0.458848890  0.000402830
 C  0.268355259 -1.366873890  0.008860830
 C -1.059173741 -0.922488890  0.008337830
 C -1.309241741  0.453656110  0.006809830
 C -0.264218741  1.383363110  0.003920830
 C  1.053270259  0.911980110 -0.001354170
 C -0.547166741  2.832910110  0.023508830
 C  0.132648259  3.710843110 -0.833951170
 C -0.134981741  5.073690110 -0.817152170
 C -1.095013741  5.616633110  0.054395830
 C -1.773249741  4.731796110  0.910653830
 C -1.504821741  3.368908110  0.897304830
 C -2.182774741 -1.891955890 -0.017346170
 C -3.315488741 -1.662366890 -0.812060170
 C -4.366923741 -2.569668890 -0.831200170
 C -4.330026741 -3.741083890 -0.056511170
 C -3.194045741 -3.964973890  0.739344830
 C -2.141176741 -3.059528890  0.758579830
 H  0.474380259 -2.429560890 -0.040814170
 H  1.873134259  1.618471110  0.074149830
 H -2.335361741  0.804210110 -0.020704170
 H  0.839454259  3.316212110 -1.556644170
 H -2.004881741  2.721095110  1.609926830
 H  0.396903259  5.726432110 -1.500808170
 H -2.509284741  5.119474110  1.606548830
 H  4.680359519 -3.384593294 -1.361290287
 H  2.355934167 -2.588063678 -1.339179593
 H  5.783140304 -0.232983007  1.339887964
 H  3.464345167  0.579450163  1.337108744
 H -1.287700741 -3.244167890  1.400987830
 H -3.142543741 -4.854378890  1.357384830
 H -5.225637741 -2.375433890 -1.464217170
 H -3.358715741 -0.779456890 -1.439657170
 C  6.808021351 -2.416150762 -0.090903430
 O  7.037476111 -3.417458080 -0.766171727
 C  7.904959245 -1.721681172  0.642384670
 C  9.167936783 -2.171653862  0.657836075
 H  7.690476861 -0.809874517  1.178391766
 N  9.684859846 -3.279415192  0.041985562
 H  9.894560404 -1.593052656  1.219061232
 C  11.002125528 -3.767133792  0.038734155
 H  9.001785411 -3.806393274 -0.509885237
 C  12.046171848 -3.187939580  0.772235157
 C  11.304691858 -4.890307982 -0.746751113
 C  13.343868355 -3.710186412  0.725662743
 H  11.875681067 -2.321087401  1.400905274
 C  13.621153963 -4.824237899 -0.059726613
 H  14.134914095 -3.242488814  1.305824697
 C  12.600485361 -5.415720722 -0.797316715
 H  10.524619829 -5.368823714 -1.334379544
 H  14.628706096 -5.229208763 -0.096214539
 H  12.808757721 -6.285725316 -1.414133344
 C -1.333700200  7.094632669 -0.015115980
 O -0.666711492  7.787791455 -0.780563605
 C -2.392700900  7.703444830  0.839949784
 C -2.635079426  9.021864829  0.869066544
 H -3.006450322  7.066578163  1.458343002
 N -2.013316421  10.017754636  0.165340227
 H -3.429644389  9.366520336  1.522988574
 C -2.252554482  11.401860718  0.174526421
 H -1.283736942  9.684988338 -0.471714195
 C -3.186140452  12.022728789  1.015039627
 C -1.530195229  12.218160776 -0.709727546
 C -3.390980062  13.406740996  0.976596011
 H -3.772514136  11.447490642  1.722848145
 C -2.663821575  14.196597021  0.092173905
 H -4.120283951  13.862954714  1.640724897
 C -1.731829004  13.602070108 -0.752564564
 H -0.797945998  11.776782734 -1.381883284
 H -2.823338140  15.270906703  0.062053471
 H -1.160237508  14.211705126 -1.447097811
 C -5.497593349 -4.676105737 -0.150363047
 O -6.462529252 -4.382946817 -0.853363512
 C -5.464656786 -5.962041960  0.603663083
 C -6.487618615 -6.828850255  0.608011163
 H -4.581314987 -6.225412729  1.164948021
 N -7.690212674 -6.730109758 -0.038235164
 H -6.365053315 -7.738960941  1.186294143
 C -8.772600547 -7.625246578 -0.053579508
 H -7.790199809 -5.883411646 -0.605652860
 C -8.812830269 -8.807630965  0.697334006
 C -9.876972431 -7.335926972 -0.870103028
 C -9.914231576 -9.669190099  0.637685155
 H -7.992635207 -9.085106696  1.350030875
 C -10.998036659 -9.362571611 -0.178517092
 H -9.920337548 -10.579145095  1.231845841
 C -10.980062068 -8.194313639 -0.933835375
 H -9.885548166 -6.430156225 -1.472018852
 H -11.852733354 -10.031760398 -0.225143232
 H -11.822215254 -7.947762016 -1.574724157
