      87
<yaff.system.System object at 0x7eff68378f90>
 C  4.027462051 -3.893913718  0.310066179
 C  2.672148051 -4.262318718  0.319743179
 C  1.678672051 -3.300991718  0.229140179
 C  2.003629051 -1.937063718  0.160580179
 C  3.355470051 -1.566913718  0.187692179
 C  4.354395051 -2.527048718  0.261396179
 C  0.941359051 -0.909939718  0.077892179
 N  1.312939051  0.376982282  0.037767179
 C  0.318010051  1.271410282 -0.038992821
 N -0.981642949  0.947974282 -0.075637821
 C -1.260558949 -0.362144718 -0.031325821
 N -0.332144949 -1.325265718  0.045418179
 C  0.676958051  2.706621282 -0.083768821
 C -0.317350949  3.691753282 -0.190296821
 C  0.018704051  5.034651282 -0.245812821
 C  1.360665051  5.440586282 -0.161808821
 C  2.359252051  4.454275282 -0.075031821
 C  2.018771051  3.109724282 -0.036659821
 C -2.682392949 -0.770638718 -0.066681821
 C -3.700649949  0.190456282 -0.135975821
 C -5.035099949 -0.188277718 -0.165449821
 C -5.391426949 -1.548090718 -0.125807821
 C -4.369830949 -2.511469718 -0.093439821
 C -3.039347949 -2.128166718 -0.047251821
 H  0.636350051 -3.590416718  0.220005179
 H  2.423007051 -5.314639718  0.386235179
 H  5.392662051 -2.220384718  0.316972179
 H  3.609547051 -0.515584718  0.158735179
 H -1.353435949  3.384405282 -0.238761821
 H -0.746394949  5.795773282 -0.341783821
 H  3.403496051  4.745260282 -0.073396821
 H  2.789534051  2.352613282  0.021499179
 H -3.429036949  1.237058282 -0.175087821
 H -5.807122949  0.567416282 -0.254919821
 H -4.647001949 -3.558870718 -0.092107821
 H -2.256291949 -2.873402718 -0.005591821
 C  5.113773473 -4.887717554  0.396360494
 N  4.892886880 -6.164455244  0.410846608
 H  6.145424638 -4.493030900  0.445357400
 N  6.095419602 -6.864775745  0.477035142
 C  5.886796475 -8.143165397  0.484208653
 C  6.992216353 -9.119671762  0.525014992
 H  4.859607010 -8.550613001  0.453337379
 C  6.685843390 -10.483738264  0.515853127
 C  7.716415372 -11.425631292  0.537460456
 H  5.653682588 -10.822523158  0.488564338
 C  9.046905799 -11.005592315  0.568871132
 H  7.483271558 -12.487520197  0.527523514
 C  9.351491163 -9.643950236  0.580886427
 H  9.848292144 -11.740477434  0.582983614
 C  8.324935921 -8.698249326  0.559180584
 H  10.388373745 -9.318143494  0.604762358
 H  8.568650175 -7.638638481  0.565610928
 C  1.678577298  6.880177295 -0.202733099
 N  2.893745678  7.328477054 -0.164614916
 H  0.822350076  7.576230070 -0.272503143
 N  2.900830083  8.719664867 -0.238513182
 C  4.111763052  9.178609234 -0.209075398
 C  4.407775771  10.621441347 -0.297364193
 H  4.975816224  8.494587590 -0.121832701
 C  5.742337946  11.037344906 -0.272996504
 C  6.046538622  12.396547663 -0.371676686
 H  6.549146930  10.315147857 -0.181527991
 C  5.021190465  13.335420345 -0.493345878
 H  7.082960594  12.724648313 -0.356111138
 C  3.689454743  12.919474745 -0.514676333
 H  5.260021611  14.393309327 -0.572755957
 C  3.379968335  11.561819852 -0.416552049
 H  2.891744975  13.651867780 -0.610097236
 H  2.340478312  11.243601828 -0.436822990
 C -6.797033926 -1.993831265 -0.153187912
 N -7.791341146 -1.165436567 -0.217803993
 H -6.972952081 -3.084889519 -0.119616075
 N -8.999578603 -1.858297588 -0.249749708
 C -10.000822491 -1.039697536 -0.322274218
 C -11.397329677 -1.510570473 -0.394588131
 H -9.839604277  0.053837514 -0.338844160
 C -12.422673886 -0.564489312 -0.485282357
 C -13.750519920 -0.987739869 -0.571258176
 H -12.199954439  0.499092844 -0.493335340
 C -14.051708057 -2.350413661 -0.565781727
 H -14.551161838 -0.255882289 -0.644877657
 C -13.027798918 -3.293739654 -0.472337042
 H -15.086164688 -2.678309765 -0.635488241
 C -11.698652509 -2.875869885 -0.386362034
 H -13.263803449 -4.354934624 -0.468776620
 H -10.904952376 -3.615747328 -0.316830757
