      54
<yaff.system.System object at 0x7f52cddc0090>
 C  0.698500333 -1.162038833  0.000000000
 C  1.458377333 -0.000028833  0.000000000
 C  0.698535333  1.161999167  0.000000000
 C -0.698496667  1.162029167  0.000000000
 C -1.458382667  0.000029167  0.000000000
 C -0.698533667 -1.161989833  0.000000000
 C  2.838461557 -0.242905456  0.002452522
 C  1.765021716 -2.236515450  0.004694686
 N  3.000754936 -1.616094629  0.007821995
 O  1.435363591 -3.409478404  0.016553678
 O  3.636302731  0.677882602 -0.010873866
 C  4.261288834 -2.294811565  0.018109317
 C  4.364659865 -3.663056260 -0.285500427
 H  3.497421448 -4.259942451 -0.550788722
 C  5.597285137 -4.329576932 -0.273387072
 H  5.638987053 -5.388740169 -0.515876054
 C  6.761142588 -3.642663715  0.045306300
 H  7.717336407 -4.158434990  0.056403362
 C  6.690326736 -2.289795236  0.349730245
 H  7.593898026 -1.740435057  0.602945519
 C  5.456163768 -1.626182176  0.334668267
 H  5.473902046 -0.571274657  0.590794534
 C -1.132431776  2.551102096  0.002452522
 C  1.131801782  2.551648626  0.004694686
 N -0.000500208  3.345280020  0.007821995
 O  2.320792814  2.817763069  0.016553678
 O -2.321475177  2.816765373 -0.010873866
 C -0.000850383  4.776923224  0.018109317
 C  1.154674981  5.516882849 -0.285500427
 H  2.091481647  5.036498765 -0.550788722
 C  1.156824650  6.918171630 -0.273387072
 H  2.069495206  7.457243305 -0.515876054
 C  0.000075635  7.616988954  0.045306300
 H  0.000621720  8.703417198  0.056403362
 C -1.157353903  6.912982656  0.349730245
 H -2.069552958  7.447894394  0.602945519
 C -1.156214488  5.511719216  0.334668267
 H -2.093330813  5.026995055  0.590794534
 C -1.764263723 -2.236782715  0.002452522
 C -2.838640622 -0.243677555  0.004694686
 N -3.000294550 -1.616931572  0.007821995
 O -3.636842495  0.676860516  0.016553678
 O -1.434198414 -3.409581965 -0.010873866
 C -4.260504874 -2.296249115  0.018109317
 C -5.459993736 -1.629911675 -0.285500427
 H -5.481392668 -0.577334987 -0.550788722
 C -6.694666565 -2.292631733 -0.273387072
 H -7.602116812 -1.744818022 -0.515876054
 C -6.761254087 -3.642439140  0.045306300
 H -7.717972437 -4.157236797  0.056403362
 C -5.592514349 -4.327505143  0.349730245
 H -5.630791015 -5.384279755  0.602945519
 C -4.359423799 -3.661901491  0.334668267
 H -3.488225195 -4.257012837  0.590794534
