      40
<yaff.system.System object at 0x7f52bc892c50>
 C -0.000013000 -1.415145000  0.000000000
 C  0.000013000  1.415145000  0.000000000
 C -1.206999000 -0.694755000  0.000000000
 C  1.206999000  0.694755000  0.000000000
 C -1.206984000  0.694770000  0.000000000
 C  1.206984000 -0.694770000  0.000000000
 H  2.148535000 -1.233078000  0.000000000
 H -2.148535000  1.233078000  0.000000000
 H  2.148565000  1.233036000  0.000000000
 H -2.148565000 -1.233036000  0.000000000
 C -0.660720165 -5.030169543 -0.189077173
 C -1.364271186 -6.203978055 -0.388117613
 H -2.412235875 -6.188504273 -0.670892521
 C -0.671786121 -7.405876775 -0.212167373
 H -1.187923554 -8.353046832 -0.359605487
 C  0.688950437 -7.405713688  0.153941616
 H  1.209399404 -8.352757978  0.286222593
 C  1.376261290 -6.203630803  0.347953736
 H  2.424462505 -6.187897840  0.629863529
 C  0.667856754 -5.029988728  0.165877070
 C  1.094856350 -3.640600077  0.289157540
 C -1.092219076 -3.640873188 -0.296897012
 N  0.000596457 -2.846824199 -0.001585681
 O -2.238607083 -3.375109118 -0.612841946
 O  2.239579168 -3.374617327  0.610780963
 C  0.660720165  5.030169543  0.189077173
 C  1.364271186  6.203978055  0.388117613
 H  2.412235875  6.188504273  0.670892521
 C  0.671786121  7.405876775  0.212167373
 H  1.187923554  8.353046832  0.359605487
 C -0.688950437  7.405713688 -0.153941616
 H -1.209399404  8.352757978 -0.286222593
 C -1.376261290  6.203630803 -0.347953736
 H -2.424462505  6.187897840 -0.629863529
 C -0.667856754  5.029988728 -0.165877070
 C -1.094856350  3.640600077 -0.289157540
 C  1.092219076  3.640873188  0.296897012
 N -0.000596457  2.846824199  0.001585681
 O  2.238607083  3.375109118  0.612841946
 O -2.239579168  3.374617327 -0.610780963
