      84
<yaff.system.System object at 0x7eff68378f90>
 C  2.406280000 -1.304070000 -0.188810000
 C  1.203390000 -0.548970000 -0.106440000
 C -0.027230000 -1.203660000 -0.047250000
 H -0.068540000 -2.290310000 -0.082140000
 C -1.205400000 -0.462500000  0.059980000
 C -2.456090000 -1.145820000  0.109240000
 C -1.153500000  0.928000000  0.109830000
 H -2.069380000  1.508030000  0.195200000
 C  0.083700000  1.572160000  0.044410000
 C  0.148000000  2.991420000  0.079300000
 C  1.263040000  0.839400000 -0.064700000
 H  2.222880000  1.348280000 -0.114060000
 C  0.175490000  4.190400000  0.090480000
 C  0.127670000  5.611430000  0.085080000
 C -3.456150000 -1.808590000  0.128860000
 C -4.564140000 -2.707110000  0.127640000
 C  3.394430000 -1.983070000 -0.219750000
 C  4.502070000 -2.877030000 -0.213360000
 C -1.117180000  6.242170000  0.077500000
 C -1.189510000  7.632000000  0.064410000
 H -2.030180000  5.651340000  0.079790000
 C -0.016980000  8.387360000  0.058750000
 H -2.159150000  8.121460000  0.057590000
 C  1.227970000  7.755110000  0.065810000
 C  1.302670000  6.362820000  0.078900000
 H  2.139400000  8.346740000  0.060060000
 H  2.273040000  5.872360000  0.082380000
 C  4.252440000 -4.250540000 -0.198640000
 C  5.314610000 -5.149730000 -0.169460000
 H  3.229840000 -4.620520000 -0.204530000
 C  6.625220000 -4.673790000 -0.155500000
 H  5.116950000 -6.217720000 -0.154560000
 C  6.874820000 -3.299950000 -0.171320000
 C  5.811540000 -2.397060000 -0.200240000
 H  7.897730000 -2.933230000 -0.157900000
 H  6.009820000 -1.328100000 -0.207300000
 C -4.315700000 -4.082170000  0.120760000
 C -5.377930000 -4.983700000  0.105750000
 H -3.293760000 -4.454150000  0.124030000
 C -6.689040000 -4.509870000  0.098020000
 H -5.180530000 -6.052100000  0.098250000
 C -6.938440000 -3.136120000  0.105990000
 C -5.875190000 -2.231340000  0.120820000
 H -7.961900000 -2.770510000  0.098710000
 H -6.075870000 -1.163000000  0.123970000
 H -1.190439461  15.208907695 -0.147565499
 C -0.663519009  14.257475304 -0.098443620
 C  0.736567180  14.249906918 -0.043314841
 H  1.279563934  15.193116646 -0.050505853
 C  1.453699595  13.045090233  0.020359079
 H  2.536988866  13.034748574  0.062492276
 C  0.730098272  11.845852123  0.025470624
 N  1.146386464  10.540381375  0.076371236
 C -0.652394951  11.897020808 -0.030973133
 O -1.118621205  10.615849485 -0.017461694
 C -1.400218088  13.066372136 -0.092724440
 H -2.481714322  13.051797519 -0.135568742
 C  0.019592020  9.848290316  0.044982302
 H  12.879459608 -7.631346197 -0.456223137
 C  11.798740369 -7.516247750 -0.392348346
 C  10.988955559 -8.658098728 -0.331007481
 H  11.448855056 -9.644374348 -0.348172306
 C  9.591783133 -8.553182960 -0.248433828
 H  8.961549887 -9.434088744 -0.201435379
 C  9.026072777 -7.271989223 -0.230785888
 N  7.719183496 -6.862955800 -0.160981351
 C  9.861416444 -6.169580620 -0.293935488
 O  9.080905481 -5.052014365 -0.265691178
 C  11.247220171 -6.229009171 -0.374256559
 H  11.856022157 -5.335254248 -0.421632037
 C  7.799671850 -5.542948193 -0.188231285
 H -11.703173524 -9.282321537 -0.089749742
 C -11.205998575 -8.314870102 -0.043527377
 C -11.978970949 -7.147417357  0.010376199
 H -13.064809647 -7.221368045  0.005142159
 C -11.377153769 -5.880871865  0.070335451
 H -11.971500324 -4.975082321  0.111509143
 C -9.978090607 -5.814446827  0.072987428
 N -9.125212883 -4.741826835  0.120173733
 C -9.251134343 -6.991556778  0.017865803
 O -7.927257924 -6.665691946  0.028485423
 C -9.806401699 -8.263852966 -0.040235580
 H -9.192355242 -9.154285037 -0.082185965
 C -7.923086484 -5.292731958  0.087976141
