     117
<yaff.system.System object at 0x7f3bde001d10>
Si -0.000000000  0.000000000 -0.000000000
 C -0.334711000 -3.282421000 -2.523411000
 C -3.282421000  0.334711000  2.523412000
 C  0.334711000  3.282422000 -2.523411000
 C  3.282421000 -0.334711000  2.523412000
 C -1.442915000 -2.894269000 -1.866366000
 C -2.894268000  1.442915000  1.866365000
 C  1.442915000  2.894269000 -1.866366000
 C  2.894269000 -1.442914000  1.866365000
 C -1.355721000 -1.850757000 -1.055712000
 C -1.850756000  1.355721000  1.055713000
 C  1.355722000  1.850757000 -1.055712000
 C  1.850757000 -1.355721000  1.055713000
 C -0.132197000 -1.201023000 -0.847056000
 C -1.201023000  0.132197000  0.847056000
 C  0.132198000  1.201023000 -0.847056000
 C  1.201024000 -0.132198000  0.847056000
 C  0.964755000 -1.566674000 -1.552049000
 C -1.566674000 -0.964756000  1.552050000
 C -0.964756000  1.566674000 -1.552049000
 C  1.566675000  0.964754000  1.552050000
 C  0.874751000 -2.604561000 -2.363589000
 C -2.604559000 -0.874752000  2.363589000
 C -0.874750000  2.604559000 -2.363589000
 C  2.604560000  0.874750000  2.363589000
 H -2.387983000 -3.392116000 -1.994223000
 H -3.392115000  2.387984000  1.994223000
 H  2.387983000  3.392116000 -1.994223000
 H  3.392116000 -2.387983000  1.994223000
 H -2.258597000 -1.552610000 -0.616202000
 H -1.552610000  2.258597000  0.616202000
 H  2.258598000  1.552609000 -0.616202000
 H  1.552610000 -2.258598000  0.616202000
 H  1.907010000 -1.051950000 -1.461484000
 H -1.051950000 -1.907011000  1.461484000
 H -1.907010000  1.051952000 -1.461484000
 H  1.051951000  1.907009000  1.461484000
 H  1.760751000 -2.888643000 -2.847495000
 H -2.888643000 -1.760751000  2.847496000
 H -1.760749000  2.888644000 -2.847495000
 H  2.888643000  1.760751000  2.847496000
 C -0.551702811 -4.458115949 -3.427259303
 O -1.653850190 -5.000727221 -3.473055230
 C  0.575365263 -4.945796230 -4.272929268
 C  0.474258608 -6.018249549 -5.071332520
 H  1.515318133 -4.415654299 -4.261275384
 N -0.608637075 -6.830894788 -5.272730450
 H  1.351049872 -6.291495478 -5.649526830
 C -0.740409400 -7.954004565 -6.105994733
 H -1.442278881 -6.552372005 -4.747064814
 C  0.312491711 -8.488846916 -6.860226318
 C -1.993649257 -8.578166916 -6.205317304
 C  0.123407697 -9.605861770 -7.682085198
 H  1.305229935 -8.054271619 -6.823605932
 C -1.127416498 -10.208645913 -7.765299244
 H  0.957672382 -10.001480396 -8.255296011
 C -2.188018101 -9.694548926 -7.026053675
 H -2.838936387 -8.193440319 -5.639391549
 H -1.274185914 -11.075429169 -8.403765840
 H -3.168604819 -10.158878759 -7.086017137
 C -4.486424080  0.540506802  3.391922498
 O -4.992541573  1.657087745  3.483274493
 C -5.064152059 -0.622175741  4.125183622
 C -6.110233128 -0.510638606  4.956508044
 H -4.639976501 -1.604039097  3.981249180
 N -6.824937897  0.610993273  5.280167575
 H -6.458441519 -1.417078037  5.441124794
 C -7.925351635  0.751742111  6.141763915
 H -6.511076160  1.458611857  4.798616427
 C -8.453014547 -0.298319423  6.904957862
 C -8.546191519  2.006296035  6.245233916
 C -9.558033775 -0.104490990  7.741791184
 H -8.015658782 -1.289957954  6.871808479
 C -10.157726853  1.147555750  7.828863796
 H -9.946268895 -0.935835401  8.324219084
 C -9.651551679  2.205024163  7.079729140
 H -8.170735574  2.847916512  5.667735298
 H -11.015875698  1.297740188  8.478108945
 H -10.114668406  3.186090678  7.141206880
 C  0.551702720  4.458117250 -3.427258933
 O  1.653849614  5.000729624 -3.473053491
 C -0.575364830  4.945796489 -4.272930199
 C -0.474258288  6.018249984 -5.071333229
 H -1.515317185  4.415653620 -4.261277488
 N  0.608636826  6.830896320 -5.272729789
 H -1.351049134  6.291495094 -5.649528560
 C  0.740409028  7.954006307 -6.105993808
 H  1.442278281  6.552374317 -4.747063182
 C -0.312491714  8.488847681 -6.860226601
 C  1.993648382  8.578169916 -6.205314822
 C -0.123407831  9.605862800 -7.682085149
 H -1.305229549  8.054271391 -6.823607442
 C  1.127415863  10.208648197 -7.765297644
 H -0.957672225  10.001480649 -8.255296922
 C  2.188017095  9.694552197 -7.026050856
 H  2.838935219  8.193444107 -5.639388094
 H  1.274185179  11.075431659 -8.403763983
 H  3.168603422  10.158883012 -7.086013102
 C  4.486423539 -0.540506805  3.391923246
 O  4.992540048 -1.657088069  3.483276762
 C  5.064152193  0.622176108  4.125183254
 C  6.110232817  0.510639060  4.956508248
 H  4.639977527  1.604039654  3.981247484
 N  6.824936500 -0.610993045  5.280169393
 H  6.458441771  1.417078764  5.441124083
 C  7.925349755 -0.751741806  6.141766362
 H  6.511074249 -1.458611927  4.798619105
 C  8.453013234  0.298320174  6.904959303
 C  8.546188534 -2.006296135  6.245238093
 C  9.558031945  0.104491785  7.741793318
 H  8.015658323  1.289959037  6.871808575
 C  10.157723926 -1.147555360  7.828867648
 H  9.946267523  0.935836550  8.324220409
 C  9.651548174 -2.205024222  7.079734016
 H  8.170732120 -2.847916970  5.667740302
 H  11.015872370 -1.297739764  8.478113335
 H  10.114664045 -3.186091057  7.141213100
