      39
CELL: None
 C  0.000000000  1.310741994  0.000000000
 N  1.182797994  0.682806999  0.000000000
 C  1.135334995 -0.655569999  0.000000000
 N  0.000133000 -1.365792992  0.000000000
 C -1.135236996 -0.655504995  0.000000000
 N -1.182666996  0.682686997  0.000000000
 C -0.000146000  2.794899989  0.000000000
 C  1.208380992  3.505007980  0.000000000
 C  1.206392995  4.895928978  0.000000000
 C -0.000583000  5.595184990  0.000000000
 C -1.207354997  4.895619976  0.000000000
 C -1.208883996  3.504675985  0.000000000
 H  2.139071989  2.953668984  0.000000000
 H  2.146539992  5.435924982  0.000000000
 H -0.000645000  6.679580958  0.000000000
 H -2.147688989  5.435278962  0.000000000
 H -2.139414991  2.953064986  0.000000000
 C -2.420506987 -1.397602993  0.000000000
 C -3.639589984 -0.705740994  0.000000000
 C -4.843355974 -1.402593991  0.000000000
 C -4.845742976 -2.797490988  0.000000000
 C -3.636677980 -3.493088983  0.000000000
 C -2.431136987 -2.799271987  0.000000000
 H -3.627159982  0.375928998  0.000000000
 H -5.780932964 -0.858155995  0.000000000
 H -5.784909995 -3.339595985  0.000000000
 H -3.634165981 -4.577274979  0.000000000
 H -1.488298992 -3.329544984  0.000000000
 C  2.420767987 -1.397476996  0.000000000
 C  3.639821981 -0.705604995  0.000000000
 C  4.843621976 -1.402438995  0.000000000
 C  4.846096974 -2.797313984  0.000000000
 C  3.637054982 -3.492974983  0.000000000
 C  2.431507988 -2.799191986  0.000000000
 H  3.627401980  0.376056998  0.000000000
 H  5.781166966 -0.857942995  0.000000000
 H  5.785293966 -3.339372985  0.000000000
 H  3.634610982 -4.577160978  0.000000000
 H  1.488696991 -3.329523986  0.000000000
