      52
<yaff.system.System object at 0x7f52bc892a50>
 C  3.660910000  0.584795000  0.000000000
 C  3.611010000 -0.839705000  0.000000000
 C  2.416510000 -1.489505000  0.000000000
 C  1.187010000 -0.752805000  0.000000000
 C  2.514810000  1.316595000  0.000000000
 C  1.236810000  0.667895000  0.000000000
 C -0.049090000 -1.403205000  0.000000000
 C -1.236890000 -0.667805000  0.000000000
 C  0.049210000  1.403295000  0.000000000
 C -1.187090000  0.752795000  0.000000000
 C -2.514790000 -1.316705000  0.000000000
 C -3.660890000 -0.584805000  0.000000000
 C -3.610990000  0.839495000  0.000000000
 C -2.416490000  1.489495000  0.000000000
 H  2.368010000 -2.584305000  0.000000000
 H  2.543210000  2.412195000  0.000000000
 H -0.087590000 -2.499505000  0.000000000
 H  0.087610000  2.499595000  0.000000000
 H -2.543090000 -2.412205000  0.000000000
 H -2.368190000  2.584395000  0.000000000
 C  5.063849842  0.955661516  0.002452522
 C  4.985111925 -1.307202653  0.004694686
 N  5.817905171 -0.203384734  0.007821995
 O  5.209429618 -2.504782772  0.016553678
 O  5.370985594  2.134673313 -0.010873866
 C  7.248682690 -0.253165009  0.018109317
 C  7.947726813 -1.433892086 -0.285500427
 H  7.434834219 -2.353303193 -0.550788722
 C  9.348080989 -1.485107785 -0.273387072
 H  9.854864127 -2.416094715 -0.515876054
 C  10.086974343 -0.353537836  0.045306300
 H  11.172717220 -0.392125818  0.056403362
 C  9.423928176  0.827833310  0.349730245
 H  9.990453329  1.720742564  0.602945519
 C  8.023484155  0.875761054  0.334668267
 H  7.571871193  1.829275738  0.590794534
 C -5.063849842 -0.955661516 -0.002452522
 C -4.985111925  1.307202653 -0.004694686
 N -5.817905171  0.203384734 -0.007821995
 O -5.209429618  2.504782772 -0.016553678
 O -5.370985594 -2.134673313  0.010873866
 C -7.248682690  0.253165009 -0.018109317
 C -7.947726813  1.433892086  0.285500427
 H -7.434834219  2.353303193  0.550788722
 C -9.348080989  1.485107785  0.273387072
 H -9.854864127  2.416094715  0.515876054
 C -10.086974343  0.353537836 -0.045306300
 H -11.172717220  0.392125818 -0.056403362
 C -9.423928176 -0.827833310 -0.349730245
 H -9.990453329 -1.720742564 -0.602945519
 C -8.023484155 -0.875761054 -0.334668267
 H -7.571871193 -1.829275738 -0.590794534
