      60
<yaff.system.System object at 0x7f192d1b9510>
 C  0.000149000  3.538221000  0.000000000
 C -1.208314000  2.825814000  0.000000000
 C -1.234523000  1.426499000  0.000000000
 C  0.000173000  0.711855000  0.000000000
 C  1.234878000  1.426489000  0.000000000
 C  1.208633000  2.825798000  0.000000000
 H -2.147734000  3.368891000  0.000000000
 H  2.148055000  3.368886000  0.000000000
 C  0.000167000 -0.711882000  0.000000000
 C -1.234536000 -1.426518000  0.000000000
 C -1.208310000 -2.825825000  0.000000000
 C  0.000175000 -3.538236000  0.000000000
 C  1.208656000 -2.825835000  0.000000000
 C  1.234871000 -1.426526000  0.000000000
 H -2.147732000 -3.368910000  0.000000000
 H  2.148078000 -3.368915000  0.000000000
 C  2.463326000  0.679235000  0.000000000
 C  2.463326000 -0.679271000  0.000000000
 H  3.399127000  1.228117000  0.000000000
 H  3.399123000 -1.228155000  0.000000000
 C -2.462978000  0.679245000  0.000000000
 C -2.462987000 -0.679261000  0.000000000
 H -3.398774000  1.228133000  0.000000000
 H -3.398787000 -1.228142000  0.000000000
 H -0.448736324  11.770751608 -1.114146465
 C  0.461074620  11.326863424 -0.716677514
 C  1.479359494  12.149006794 -0.238128244
 H  1.363027949  13.229770412 -0.259718267
 C  2.651809277  11.585390377  0.257968083
 H  3.453784634  12.222698160  0.622178613
 C  2.801697182  10.197215530  0.282297802
 H  3.726717350  9.770436639  0.668035148
 C  1.781453998  9.355981020 -0.189890051
 C  2.024893576  7.878185996 -0.150139333
 C  0.610618509  9.935899374 -0.699955273
 H -0.195793294  9.342156124 -1.113975890
 O  3.178753482  7.463041963 -0.232201377
 N  0.907555009  7.063993605 -0.017573501
 H -0.017771644  7.441979502  0.121372286
 N  1.062107852  5.709546441 -0.032841129
 C -0.027319184  5.013657206  0.019917649
 H -1.021880442  5.491980994  0.070278930
 H  0.448736324 -11.770751608  1.114146465
 C -0.461074620 -11.326863424  0.716677514
 C -1.479359494 -12.149006794  0.238128244
 H -1.363027949 -13.229770412  0.259718267
 C -2.651809277 -11.585390377 -0.257968083
 H -3.453784634 -12.222698160 -0.622178613
 C -2.801697182 -10.197215530 -0.282297802
 H -3.726717350 -9.770436639 -0.668035148
 C -1.781453998 -9.355981020  0.189890051
 C -2.024893576 -7.878185996  0.150139333
 C -0.610618509 -9.935899374  0.699955273
 H  0.195793294 -9.342156124  1.113975890
 O -3.178753482 -7.463041963  0.232201377
 N -0.907555009 -7.063993605  0.017573501
 H  0.017771644 -7.441979502 -0.121372286
 N -1.062107852 -5.709546441  0.032841129
 C  0.027319184 -5.013657206 -0.019917649
 H  1.021880442 -5.491980994 -0.070278930
