      66
<yaff.system.System object at 0x7fcc33c275d0>
 C  2.594721975 -0.803042738 -0.463296744
 C  1.192502366 -0.497212196 -0.218045132
 C  0.065053697 -1.207654423 -0.591075722
 H  0.117972119 -2.139694743 -1.142514618
 C -1.136014647 -0.628168196 -0.220766459
 C -2.493796812 -1.086064864 -0.477627101
 C -1.212416318  0.572343425  0.469936694
 C -2.634581919  0.879079250  0.641083051
 C -0.077288290  1.277983164  0.852371574
 H -0.130718641  2.219027793  1.389272092
 C  1.131286774  0.698479109  0.482625637
 C  2.510597082  1.145897664  0.689299179
 N -3.354717750 -0.136510250  0.035418250
 N  3.344032250  0.208749750  0.102548250
 O -2.977386949  1.885929367  1.234317595
 O -2.674622336 -2.137303305 -1.063707033
 O  2.734903026  2.186746473  1.279923781
 O  2.894996663 -1.814846508 -1.070204593
 C -4.779157750 -0.244520250 -0.079881750
 C  4.776282250  0.250709750  0.090598250
 C -5.598447750  0.885339750 -0.236421750
 C -6.987337750  0.768939750 -0.396281750
 H -5.191987750  1.892079750 -0.255001750
 C -7.593107750 -0.481480250 -0.397281750
 H -7.592377750  1.663179750 -0.526491750
 C -6.810587750 -1.614680250 -0.229201750
 C -5.424057750 -1.494860250 -0.070921750
 H -7.269907750 -2.600490250 -0.224171750
 H -4.878867750 -2.424760250  0.057408250
 C  5.483312250  1.458609750  0.205788250
 C  6.885602250  1.492349750  0.200838250
 H  4.976532250  2.412839750  0.314018250
 C  7.616882250  0.317529750  0.076798250
 H  7.402702250  2.444229750  0.296648250
 C  6.945222250 -0.890780250 -0.041811750
 C  5.544762250 -0.921110250 -0.033961750
 H  7.503602250 -1.818700250 -0.141941750
 H  5.089732250 -1.901230250 -0.138591750
 C -13.995053859 -0.078578739 -1.032808228
 C -13.453625723  0.949853720 -0.259216670
 C -13.143817788 -0.962762114 -1.694459791
 C -11.762529108 -0.836576444 -1.571439071
 C -11.213756642  0.185842086 -0.780212923
 C -12.075266987  1.093898880 -0.147152162
 C -9.049971688 -0.619909077 -0.494342165
 N -9.830562570  0.380990923 -0.632688238
 H -14.108807225  1.648701808  0.248773109
 H -13.555893630 -1.748755550 -2.317726912
 H -11.105162577 -1.505858920 -2.114696370
 H -11.642181215  1.896859385  0.437538346
 H -9.436064827 -1.646450210 -0.424798312
 H -15.069657838 -0.179427436 -1.131739362
 C  13.995053859  0.078578739  1.032808228
 C  13.453625723 -0.949853720  0.259216670
 C  13.143817788  0.962762114  1.694459791
 C  11.762529108  0.836576444  1.571439071
 C  11.213756642 -0.185842086  0.780212923
 C  12.075266987 -1.093898880  0.147152162
 C  9.049971688  0.619909077  0.494342165
 N  9.830562570 -0.380990923  0.632688238
 H  14.108807225 -1.648701808 -0.248773109
 H  13.555893630  1.748755550  2.317726912
 H  11.105162577  1.505858920  2.114696370
 H  11.642181215 -1.896859385 -0.437538346
 H  9.436064827  1.646450210  0.424798312
 H  15.069657838  0.179427436  1.131739362
