      26
<yaff.system.System object at 0x7eff68378f10>
 F  1.342850000 -2.363239000 -0.181050000
 C  0.684160000 -1.200169000 -0.092040000
 C -0.709070000 -1.188689000 -0.034700000
 F -1.391880000 -2.340709000 -0.068500000
 C -1.404610000  0.011571000  0.057810000
 C -0.684160000  1.200171000  0.092040000
 F -1.342850000  2.363241000  0.181050000
 C  0.709070000  1.188691000  0.034700000
 F  1.391880000  2.340711000  0.068500000
 C  1.404610000 -0.011579000 -0.057810000
 C -2.883159358  0.023754502  0.118663329
 N -3.531642976 -1.153558270  0.082104847
 C -4.857484114 -1.076574901  0.140205884
 N -3.506946575  1.211634685  0.207589715
 C -4.834115924  1.156584259  0.258683671
 N -5.575695480  0.046021317  0.229485533
 H -5.363992734  2.102374021  0.330839342
 H -5.406985173 -2.013471293  0.112474611
 C  2.883159289 -0.023770922 -0.118663325
 N  3.531649587  1.153538188 -0.082105433
 C  4.857490288  1.076547266 -0.140206435
 N  3.506939765 -1.211654690 -0.207589119
 C  4.834109426 -1.156611821 -0.258683105
 N  5.575695284 -0.046053072 -0.229485524
 H  5.363980869 -2.102404625 -0.330838305
 H  5.406996664  2.013440554 -0.112475631
