      87
<yaff.system.System object at 0x7eff6837e1d0>
 N  1.048041667 -2.362353333 -0.827760000
 C  0.687191667 -1.111843333 -0.380820000
 C -0.707988333 -1.156633333 -0.350020000
 N -1.140578333 -2.423203333 -0.704650000
 C -1.452748333 -0.004173333  0.016440000
 C -2.937038333  0.018916667  0.013290000
 C -0.690808333  1.125556667  0.389200000
 H -1.190148333  2.031256667  0.727650000
 C  0.707131667  1.132496667  0.363290000
 H  1.218751667  2.041706667  0.676780000
 C  1.457221667  0.014596667 -0.038090000
 C  2.930271667  0.035566667 -0.088570000
 C -3.644438333  1.216186667 -0.227900000
 C  3.614231667  1.150886667 -0.607650000
 C  3.709801667 -1.028743333  0.397570000
 C -3.714278333 -1.126953333  0.257540000
 C -5.114658333 -1.083173333  0.260860000
 H -3.237768333 -2.085023333  0.454110000
 C  5.107441667 -0.993503333  0.339110000
 H  3.237601667 -1.893393333  0.858000000
 C -5.778958333  0.116916667  0.034260000
 H -5.680408333 -1.992973333  0.442850000
 C -5.043148333  1.269606667 -0.208850000
 H -3.111798333  2.138136667 -0.449260000
 C  5.011001667  1.198966667 -0.646670000
 H  3.058831667  2.004406667 -0.992550000
 C  5.757241667  0.121996667 -0.180560000
 H  5.688571667 -1.831683333  0.715280000
 H  5.511931667  2.079726667 -1.040580000
 H -5.551588333  2.212836667 -0.390060000
 C -0.066158333 -3.157953333 -0.916690000
 H  1.993111667 -2.657013333 -1.011250000
 C -0.040848333 -4.599613333 -1.196060000
 C -1.251718333 -5.281883333 -1.390290000
 C -1.273518333 -6.658563333 -1.631550000
 H -2.193238333 -4.735723333 -1.348080000
 C  1.151281667 -5.339883333 -1.242140000
 C -0.081488333 -7.375973333 -1.679350000
 H -2.223038333 -7.167013333 -1.777580000
 C  1.130121667 -6.718103333 -1.483600000
 H  2.116521667 -4.871123333 -1.078620000
 H  2.060961667 -7.279213333 -1.512890000
 B -7.354386730  0.144031424  0.080148531
 O -8.052090554 -0.982344060  0.285076258
 O -8.024238802  1.289055420 -0.117780421
Si -9.537342433 -1.571613699  0.240459031
Si -9.497674251  1.865681210 -0.343411442
 O -10.394385876 -0.780003910  1.332883396
 O -10.153667177 -1.209039298 -1.189703169
 H -9.549761518 -3.021430237  0.481168051
 O -10.138729891  1.067877667 -1.571348387
 O -10.357596863  1.497820408  0.953170277
 H -9.477230584  3.314319218 -0.590871743
 B -10.763655381  0.456802718  1.693400266
 H -11.194861911  0.643978724  2.776170734
 B -10.419660642 -0.171829621 -1.996002799
 H -10.597297139 -0.363245391 -3.147133611
 B  7.332336524  0.180284605 -0.202793037
 O  7.970230645  1.242509393 -0.714923216
 O  8.060800908 -0.846244258  0.260387009
Si  9.419310003  1.749270020 -1.160529802
Si  9.559344221 -1.396713086  0.336352056
 O  10.340013837  1.760498648  0.145892367
 O  10.026994335  0.651131664 -2.151232688
 H  9.355832111  3.072865648 -1.796240610
 O  10.131174245 -1.429480794 -1.156031497
 O  10.422467721 -0.320492839  1.144238450
 H  9.614615133 -2.723506141  0.966250414
 B  10.784336913  0.970033822  1.132687878
 H  11.246176977  1.454985311  2.104743237
 B  10.334521074 -0.651253802 -2.228011176
 H  10.478909104 -1.151197563 -3.287494635
 B -0.088126841 -8.920422431 -1.994704586
 O  1.062127426 -9.596689028 -2.125419314
 O -1.244374895 -9.577162296 -2.170035159
Si  1.649786385 -11.006034793 -2.598287170
Si -1.836636668 -10.984740825 -2.641593593
 O  1.043164883 -12.122087882 -1.628237496
 O  1.076229555 -11.297227583 -4.062158622
 H  3.119431606 -11.009559299 -2.584374493
 O -1.232347390 -11.295316077 -4.088538461
 O -1.266192125 -12.099392626 -1.647583026
 H -3.306224737 -10.971826463 -2.660321866
 B -0.120182390 -12.616983102 -1.183574859
 H -0.134637741 -13.290193751 -0.214067624
 B -0.070622875 -11.418385483 -4.745331951
 H -0.057461447 -11.321883835 -5.921686947
