      69
<yaff.system.System object at 0x7eff68378f10>
 C  4.027462051 -3.893913718  0.310066179
 C  2.672148051 -4.262318718  0.319743179
 C  1.678672051 -3.300991718  0.229140179
 C  2.003629051 -1.937063718  0.160580179
 C  3.355470051 -1.566913718  0.187692179
 C  4.354395051 -2.527048718  0.261396179
 C  0.941359051 -0.909939718  0.077892179
 N  1.312939051  0.376982282  0.037767179
 C  0.318010051  1.271410282 -0.038992821
 N -0.981642949  0.947974282 -0.075637821
 C -1.260558949 -0.362144718 -0.031325821
 N -0.332144949 -1.325265718  0.045418179
 C  0.676958051  2.706621282 -0.083768821
 C -0.317350949  3.691753282 -0.190296821
 C  0.018704051  5.034651282 -0.245812821
 C  1.360665051  5.440586282 -0.161808821
 C  2.359252051  4.454275282 -0.075031821
 C  2.018771051  3.109724282 -0.036659821
 C -2.682392949 -0.770638718 -0.066681821
 C -3.700649949  0.190456282 -0.135975821
 C -5.035099949 -0.188277718 -0.165449821
 C -5.391426949 -1.548090718 -0.125807821
 C -4.369830949 -2.511469718 -0.093439821
 C -3.039347949 -2.128166718 -0.047251821
 H  0.636350051 -3.590416718  0.220005179
 H  2.423007051 -5.314639718  0.386235179
 H  5.392662051 -2.220384718  0.316972179
 H  3.609547051 -0.515584718  0.158735179
 H -1.353435949  3.384405282 -0.238761821
 H -0.746394949  5.795773282 -0.341783821
 H  3.403496051  4.745260282 -0.073396821
 H  2.789534051  2.352613282  0.021499179
 H -3.429036949  1.237058282 -0.175087821
 H -5.807122949  0.567416282 -0.254919821
 H -4.647001949 -3.558870718 -0.092107821
 H -2.256291949 -2.873402718 -0.005591821
 N  5.077418967 -4.900894524  0.407303043
 B  6.553644036 -4.522762961  0.609655730
 B  4.775634195 -6.405303985  0.313199555
 H  6.908917805 -3.408398482  0.710126863
 N  7.664156430 -5.564340816  0.710813635
 H  3.689897313 -6.819285994  0.146130799
 N  5.862995960 -7.471178786  0.412859810
 B  7.302783706 -7.034717857  0.610721356
 H  8.656896527 -5.271102867  0.850717654
 H  5.621787360 -8.484976015  0.341314215
 H  8.153668114 -7.850527566  0.687987076
 N  1.707402041  6.856558937 -0.187688853
 B  0.636494857  7.958988394 -0.156421639
 B  3.166105720  7.337883166 -0.248416993
 H -0.511050074  7.718945743 -0.096070599
 N  0.982975904  9.444742097 -0.185437937
 H  4.072521416  6.593019195 -0.289719544
 N  3.545204390  8.815680337 -0.276284225
 B  2.442061784  9.857191741 -0.245196117
 H  0.228834659  10.167062341 -0.160558693
 H  4.547417886  9.106645822 -0.320920303
 H  2.722929766  11.004417432 -0.267693670
 N -6.791221490 -1.955764364 -0.141692320
 B -7.214818633 -3.424048671  0.025272342
 B -7.933259051 -0.943532435 -0.326932909
 H -6.436846876 -4.288046313  0.187722668
 N -8.674925497 -3.866946835  0.008411447
 H -7.737624540  0.204176284 -0.477297414
 N -9.402724826 -1.354243108 -0.346010160
 B -9.757453320 -2.820044562 -0.177992664
 H -8.926447300 -4.873784391  0.127194647
 H -10.152856955 -0.639311322 -0.477385634
 H -10.891509210 -3.150544243 -0.192378405
