     150
<yaff.system.System object at 0x7f3bde001d50>
 C  3.834450000  2.028850000  0.170710000
 C  4.206330000  0.766460000 -0.028510000
 C  3.061750000 -0.118750000 -0.027720000
 C  2.370940000  1.922770000  0.075610000
 N  1.928970000  0.690610000 -0.011520000
 C  1.610010000  3.228620000  0.050410000
 C  0.261520000  3.197680000  0.091160000
 N -0.610890000  2.132640000  0.135180000
 C -1.936010000  2.503710000  0.103780000
 C -0.610970000  4.367110000  0.089560000
 C -1.888450000  3.964100000  0.143740000
 C -3.061790000  1.761380000  0.025080000
 C -2.951580000  0.254180000 -0.012510000
 N -1.879610000 -0.503420000 -0.000070000
 C -3.782560000 -1.754340000  0.057960000
 C -4.212200000 -0.502070000 -0.047320000
 C -0.176010000 -3.028340000 -0.060020000
 N  0.671370000 -1.928970000 -0.029400000
 C  1.995920000 -2.349370000 -0.010440000
 C  1.965000000 -3.733700000  0.015910000
 C  0.639340000 -4.146480000 -0.126480000
 C  3.147630000 -1.476470000 -0.015980000
 C -1.620780000 -2.974640000 -0.017310000
 C -2.336100000 -1.819480000  0.013870000
 H  4.463900000  2.885230000  0.286010000
 H  5.237850000  0.476960000 -0.118110000
 C  2.358930000  4.521340000 -0.050440000
 H -0.306820000  1.166360000  0.052270000
 H -0.301730000  5.398590000  0.063860000
 H -2.734880000  4.629900000  0.185090000
 C -4.397420000  2.434930000 -0.006460000
 H -4.450990000 -2.596530000  0.127720000
 H -5.226140000 -0.160350000 -0.095230000
 H  0.368460000 -0.960990000 -0.016620000
 H  2.820260000 -4.392510000  0.077770000
 H  0.310690000 -5.174130000 -0.203890000
 C  4.531580000 -2.102480000 -0.035610000
 C -2.374400000 -4.291370000  0.032450000
 C -4.741190000  3.311750000 -1.050370000
 C -5.977000000  3.965120000 -1.062590000
 H -4.031900000  3.519110000 -1.850140000
 C -6.911260000  3.708380000 -0.062580000
 H -6.208570000  4.674480000 -1.853500000
 C -6.599060000  2.823450000  0.966560000
 C -5.340520000  2.215570000  1.011330000
 H -7.333480000  2.610180000  1.739570000
 H -5.112220000  1.548090000  1.840350000
 C  3.256720000  4.734290000 -1.112880000
 C  4.070410000  5.869650000 -1.151690000
 H  3.370520000  3.985610000 -1.895730000
 C  3.946060000  6.847820000 -0.169600000
 H  4.807020000  5.983140000 -1.943480000
 C  3.020070000  6.683940000  0.858240000
 C  2.251750000  5.517520000  0.933110000
 H  2.906760000  7.458130000  1.613260000
 H  1.565100000  5.396900000  1.768870000
 C  4.872220000 -3.027410000 -1.039010000
 C  6.122890000 -3.651820000 -1.053390000
 H  4.145120000 -3.295470000 -1.803690000
 C  7.080580000 -3.314800000 -0.101320000
 H  6.344820000 -4.401200000 -1.808820000
 C  6.772130000 -2.389760000  0.892460000
 C  5.494670000 -1.823420000  0.950700000
 H  7.522030000 -2.113930000  1.629310000
 H  5.266900000 -1.133430000  1.760630000
 C -3.297960000 -4.666250000 -0.957890000
 C -3.944920000 -5.905850000 -0.903880000
 H -3.528960000 -3.989670000 -1.777670000
 C -3.627980000 -6.818280000  0.100320000
 H -4.684150000 -6.165690000 -1.657210000
 C -2.689640000 -6.480600000  1.070970000
 C -2.091670000 -5.217730000  1.053630000
 H -2.411560000 -7.200630000  1.836380000
 H -1.358000000 -4.974810000  1.820860000
 H -12.965045550  5.007987459  2.033288325
 C -13.216718247  5.770225093  1.297365463
 C -14.465590628  6.393781357  1.370854799
 H -15.165928927  6.114766729  2.154379315
 C -14.811169976  7.371696697  0.442428976
 H -15.782477054  7.857277221  0.497777037
 C -13.907205896  7.730541642 -0.554067180
 H -14.175258333  8.498847111 -1.275965690
 C -12.654245838  7.111177234 -0.626914375
 H -11.985083472  7.443919509 -1.411803612
 C -12.296433856  6.116300440  0.294400385
 C -10.979722475  5.400422615  0.285688782
 O -10.689302073  4.640344754  1.207204241
 C -10.042407474  5.611283983 -0.854596385
 C -8.828803755  5.044175548 -0.912738150
 H -10.344949459  6.235167900 -1.681599942
 N -8.236806306  4.204886426 -0.007890504
 H -8.222016921  5.257870958 -1.786739826
 H -8.824156288  3.983154508  0.801252819
 H  5.491362823  12.735384595  1.756405635
 C  6.294725493  12.922408507  1.045379410
 C  6.972955428  14.143512726  1.098426190
 H  6.694829453  14.886635849  1.841828860
 C  8.004046856  14.406738488  0.201051868
 H  8.532224024  15.356348730  0.240530475
 C  8.361127121  13.448202731 -0.743738178
 H  9.170733086  13.651861106 -1.441122082
 C  7.686860792  12.222853070 -0.795805602
 H  8.020136984  11.508345900 -1.539413894
 C  6.638561093  11.947905373  0.094195320
 C  5.862282060  10.665886225  0.104372754
 O  5.051488511  10.447516045  1.002248798
 C  6.076107312  9.675048158 -0.989149482
 C  5.455237229  8.487190074 -1.025754679
 H  6.747600739  9.915505884 -1.799071908
 N  4.551842719  7.970739888 -0.136499915
 H  5.676373796  7.836800894 -1.865890056
 H  4.324478152  8.599498140  0.639274779
 H  13.099631561 -4.613568516  1.881348206
 C  13.347908699 -5.403407323  1.173929705
 C  14.612305314 -5.995796361  1.239364771
 H  15.327817240 -5.665800882  1.988617219
 C  14.953955513 -7.007905597  0.346824551
 H  15.937299700 -7.469328699  0.395938951
 C  14.030793537 -7.431869748 -0.605515571
 H  14.295972805 -8.226766490 -1.299130728
 C  12.762425977 -6.843725647 -0.669999215
 H  12.079261510 -7.226768946 -1.419072609
 C  12.407962884 -5.815269887  0.215023273
 C  11.075478472 -5.129148769  0.212037420
 O  10.793745272 -4.333722133  1.106003849
 C  10.111556947 -5.412690313 -0.889657492
 C  8.884129877 -4.875204673 -0.938220881
 H  10.404941447 -6.067468878 -1.695813955
 N  8.298735437 -4.007950194 -0.055724711
 H  8.258068908 -5.142130060 -1.783521668
 H  8.903365229 -3.736417140  0.725012490
 H -5.088320389 -12.904734000  2.261165101
 C -5.885077860 -13.146623722  1.559314184
 C -6.521172642 -14.387167778  1.660996004
 H -6.217554254 -15.090839662  2.432290576
 C -7.542988891 -14.720188591  0.776288876
 H -8.038399217 -15.685010932  0.853591858
 C -7.932947116 -13.811933516 -0.204491755
 H -8.735371036 -14.070116938 -0.892052686
 C -7.300958327 -12.567246822 -0.305353525
 H -7.658717111 -11.894042561 -1.075646638
 C -6.262346977 -12.222219819  0.571500492
 C -5.530319003 -10.915033374  0.530458348
 O -4.727139289 -10.634306312  1.417784538
 C -5.778262575 -9.975425119 -0.600440632
 C -5.198352400 -8.769399493 -0.684302472
 H -6.441437474 -10.270029687 -1.399255303
 N -4.312813064 -8.188168249  0.182650119
 H -5.441880830 -8.160160911 -1.548742854
 H -4.063822280 -8.778099850  0.981926203
