      56
<yaff.system.System object at 0x7ffb5af52b90>
 C -0.000000000  3.577958000 -0.000000182
 C  1.133739000  2.852350000 -0.402520182
 C  1.135339000  1.463226000 -0.401762182
 C -0.000000000  0.741600000 -0.000000182
 C -1.135339000  1.463225000  0.401761818
 C -1.133738000  2.852349000  0.402519818
 C -0.000000000 -0.741600000 -0.000000182
 C -1.135339000 -1.463226000 -0.401762182
 C -1.133739000 -2.852350000 -0.402520182
 C -0.000000000 -3.577958000 -0.000000182
 C  1.133738000 -2.852349000  0.402519818
 C  1.135339000 -1.463225000  0.401761818
 H -2.020512000 -3.385811000 -0.727052182
 H -2.020512000  3.385812000  0.727052818
 H  2.020512000 -3.385812000  0.727052818
 H  2.020512000  3.385811000 -0.727052182
 H -2.015826000 -0.929067000 -0.740072182
 H -2.015827000  0.929068000  0.740072818
 H  2.015826000  0.929067000 -0.740072182
 H  2.015827000 -0.929068000  0.740072818
 H -0.759731570  11.797813876 -0.276376535
 C  0.212536028  11.359408209 -0.489145025
 C  1.298833861  12.187586970 -0.764663026
 H  1.174908419  13.267721798 -0.764036267
 C  2.541883309  11.630236033 -1.052067843
 H  3.389925239  12.271689934 -1.278644040
 C  2.699372700  10.242694882 -1.055859010
 H  3.676365286  9.820558252 -1.287983942
 C  1.615685508  9.395792990 -0.773171415
 C  1.858499165  7.918008216 -0.816929533
 C  0.365197459  9.968714734 -0.498639293
 H -0.517238277  9.368400748 -0.311090892
 O  2.918901271  7.502912751 -1.279222251
 N  0.849423067  7.103768798 -0.319226787
 H  0.023440554  7.481715750  0.120452270
 N  0.990082912  5.749328140 -0.385197346
 C -0.019308756  5.053393049  0.027960484
 H -0.940115421  5.531674974  0.407227526
 H  0.759731495 -11.797815890 -0.276376142
 C -0.212536161 -11.359410234 -0.489144390
 C -1.298834069 -12.187589009 -0.764662055
 H -1.174908626 -13.267723836 -0.764035274
 C -2.541883595 -11.630238087 -1.052066563
 H -3.389925585 -12.271691999 -1.278642496
 C -2.699372987 -10.242696936 -1.055857757
 H -3.676365636 -9.820560318 -1.287982445
 C -1.615685718 -9.395795029 -0.773170499
 C -1.858499386 -7.918010257 -0.816928627
 C -0.365197594 -9.968716759 -0.498638687
 H  0.517238193 -9.368402764 -0.311090556
 O -2.918901618 -7.502914816 -1.279221078
 N -0.849423153 -7.103770814 -0.319226196
 H -0.023440521 -7.481717744  0.120452656
 N -0.990083016 -5.749330159 -0.385196785
 C  0.019308764 -5.053395048  0.027960736
 H  0.940115531 -5.531676953  0.407227552
