      36
<yaff.system.System object at 0x7eff68378e90>
 C -0.000000000  3.577958000 -0.000000182
 C  1.133739000  2.852350000 -0.402520182
 C  1.135339000  1.463226000 -0.401762182
 C -0.000000000  0.741600000 -0.000000182
 C -1.135339000  1.463225000  0.401761818
 C -1.133738000  2.852349000  0.402519818
 C -0.000000000 -0.741600000 -0.000000182
 C -1.135339000 -1.463226000 -0.401762182
 C -1.133739000 -2.852350000 -0.402520182
 C -0.000000000 -3.577958000 -0.000000182
 C  1.133738000 -2.852349000  0.402519818
 C  1.135339000 -1.463225000  0.401761818
 H -2.020512000 -3.385811000 -0.727052182
 H -2.020512000  3.385812000  0.727052818
 H  2.020512000 -3.385812000  0.727052818
 H  2.020512000  3.385811000 -0.727052182
 H -2.015826000 -0.929067000 -0.740072182
 H -2.015827000  0.929068000  0.740072818
 H  2.015826000  0.929067000 -0.740072182
 H  2.015827000 -0.929068000  0.740072818
 B  0.000010262  5.126507002 -0.000024136
 O  1.122692381  5.836042642 -0.397136235
 B  1.128540533  7.210106565 -0.399112928
 O -1.122515675  5.836072347  0.397472035
 B -1.128275244  7.210136419  0.399596755
 O  0.000139936  7.893850993  0.000236316
 H  2.095935068  7.803726182 -0.740977715
 H -2.095339421  7.803780769  0.742352168
 B  0.000010262 -5.126507002  0.000023615
 O  1.122692404 -5.836042682  0.397135577
 B  1.128540556 -7.210106606  0.399112130
 O -1.122515698 -5.836072307 -0.397472564
 B -1.128275267 -7.210136378 -0.399597423
 O  0.000139936 -7.893850993 -0.000237119
 H  2.095935111 -7.803726258  0.740976801
 H -2.095339464 -7.803780693 -0.742352841
