      38
<yaff.system.System object at 0x7f192d1b9510>
 F  1.342850000 -2.363239000 -0.181050000
 C  0.684160000 -1.200169000 -0.092040000
 C -0.709070000 -1.188689000 -0.034700000
 F -1.391880000 -2.340709000 -0.068500000
 C -1.404610000  0.011571000  0.057810000
 C -0.684160000  1.200171000  0.092040000
 F -1.342850000  2.363241000  0.181050000
 C  0.709070000  1.188691000  0.034700000
 F  1.391880000  2.340711000  0.068500000
 C  1.404610000 -0.011579000 -0.057810000
 N -2.804926648 -0.018710286  0.058977018
 C -3.463789441  0.675557419  0.904155753
 C -4.929305515  0.740678760  0.913262040
 C -5.574161945  1.506388591  1.894109481
 C -6.964055139  1.589951363  1.927108993
 C -7.722618334  0.907192846  0.978290472
 C -7.087401414  0.140337785 -0.003532674
 C -5.702167212  0.056277005 -0.038746536
 H -2.956497471  1.254966853  1.688355317
 H -4.982361002  2.037395243  2.633119380
 H -7.453098574  2.185008382  2.689830534
 H -8.804776874  0.970121160  1.001260044
 H -7.678929813 -0.390356022 -0.741070290
 H -5.196009748 -0.533375458 -0.793216882
 N  2.804926648  0.018710286 -0.058977018
 C  3.463789441 -0.675557419 -0.904155753
 C  4.929305515 -0.740678760 -0.913262040
 C  5.574161945 -1.506388591 -1.894109481
 C  6.964055139 -1.589951363 -1.927108993
 C  7.722618334 -0.907192846 -0.978290472
 C  7.087401414 -0.140337785  0.003532674
 C  5.702167212 -0.056277005  0.038746536
 H  2.956497471 -1.254966853 -1.688355317
 H  4.982361002 -2.037395243 -2.633119380
 H  7.453098574 -2.185008382 -2.689830534
 H  8.804776874 -0.970121160 -1.001260044
 H  7.678929813  0.390356022  0.741070290
 H  5.196009748  0.533375458  0.793216882
