     118
<yaff.system.System object at 0x7f3bde001d50>
 C -0.673043696 -0.061281087  0.099838696
 C  0.676216304  0.084438913 -0.077921304
 C -1.445563696  0.859668913  0.987758696
 C -1.208593696  0.910808913  2.368608696
 H -0.435593696  0.291168913  2.815748696
 C -1.956453696  1.762468913  3.184708696
 H -1.756043696  1.803278913  4.251888696
 C -2.958213696  2.558248913  2.631708696
 C -3.215433696  2.502618913  1.263248696
 H -4.001643696  3.116068913  0.831638696
 C -2.465153696  1.655188913  0.445338696
 H -2.681203696  1.618718913 -0.619611304
 C  1.423956304  1.217358913  0.545288696
 C  1.186576304  2.544388913  0.160958696
 H  0.432056304  2.771628913 -0.587751304
 C  1.910456304  3.588888913  0.739918696
 H  1.711366304  4.615018913  0.443058696
 C  2.886286304  3.315958913  1.697168696
 C  3.142086304  1.999178913  2.075248696
 H  3.907026304  1.784298913  2.816488696
 C  2.417466304  0.953908913  1.499138696
 H  2.631376304 -0.068851087  1.799648696
 C -1.412513696 -1.154241087 -0.600071304
 C -1.922953696 -2.232601087  0.134698696
 H -1.770443696 -2.283151087  1.209878696
 C -2.626883696 -3.253351087 -0.507091304
 H -3.013833696 -4.089711087  0.068518696
 C -2.834543696 -3.198741087 -1.884751304
 C -2.343603696 -2.122491087 -2.622201304
 H -2.507323696 -2.077791087 -3.695421304
 C -1.638713696 -1.101381087 -1.982691304
 H -1.261323696 -0.266561087 -2.567421304
 C  1.439886304 -0.894691087 -0.907871304
 C  1.681336304 -2.196721087 -0.447761304
 H  1.299246304 -2.515401087  0.518518696
 C  2.406656304 -3.098111087 -1.228831304
 H  2.581246304 -4.108341087 -0.868861304
 C  2.903116304 -2.703191087 -2.470121304
 C  2.679966304 -1.406181087 -2.930431304
 H  3.069876304 -1.097111087 -3.896341304
 C  1.955636304 -0.502771087 -2.150401304
 H  1.790596304  0.507088913 -2.517471304
 H -7.985165454  6.502276359  3.824452028
 C -7.912964401  6.532743205  4.910631845
 C -8.846601235  7.285432320  5.628745121
 H -9.627944520  7.827026742  5.101097780
 C -8.776340877  7.340112292  7.017914510
 H -9.501412158  7.925654755  7.578004641
 C -7.778296163  6.638146463  7.688791598
 H -7.727101655  6.676388207  8.774701149
 C -6.845205501  5.879860686  6.972431083
 H -6.102795223  5.339906961  7.548472540
 C -6.896421747  5.824411464  5.572098117
 C -5.935853597  5.042004145  4.728632984
 O -6.129603618  4.933683192  3.519509084
 C -4.744912092  4.415083422  5.370428068
 C -3.865893493  3.662290546  4.693334561
 H -4.563146199  4.575278100  6.422091751
 N -3.868687253  3.338471928  3.363390890
 H -3.029887629  3.252331088  5.250795194
 H -4.643347823  3.750995412  2.835580944
 H  5.488945596  9.247923589  2.232138620
 C  6.189672452  9.045030340  3.040683002
 C  6.990788257  10.086576443  3.517443425
 H  6.906790690  11.078921904  3.081062334
 C  7.893999635  9.853248747  4.550635276
 H  8.518371728  10.662173462  4.922239353
 C  7.991665276  8.582259593  5.110968513
 H  8.693442943  8.401576964  5.922229725
 C  7.187235361  7.538855825  4.638709073
 H  7.293235500  6.576164897  5.125059724
 C  6.280903218  7.755982454  3.590831117
 C  5.386871311  6.695651013  3.022773025
 O  4.524831288  6.997140647  2.199824604
 C  5.567110955  5.280445616  3.456339107
 C  4.778669401  4.283260216  3.029950055
 H  6.370066932  5.031063639  4.132924656
 N  3.721802129  4.344868187  2.162279324
 H  4.993230490  3.286624743  3.401993321
 H  3.540976357  5.282265087  1.791540798
 H -6.464145932 -5.957096393 -6.517860059
 C -6.779617685 -6.843820250 -5.970022318
 C -7.600881996 -7.776498518 -6.609976613
 H -7.912911506 -7.609302143 -7.638041066
 C -8.017401551 -8.918507533 -5.931710529
 H -8.656778565 -9.644700398 -6.427825688
 C -7.608257320 -9.131257234 -4.617836903
 H -7.929170952 -10.026595720 -4.089948376
 C -6.782009879 -8.201354468 -3.976413561
 H -6.480362645 -8.428577240 -2.960576190
 C -6.363661531 -7.040658218 -4.643046153
 C -5.484089745 -5.993176325 -4.030330093
 O -5.050732799 -5.074873418 -4.723276435
 C -5.157700883 -6.073381212 -2.577639596
 C -4.341775682 -5.202402811 -1.966502033
 H -5.599323039 -6.853697329 -1.976994687
 N -3.687949065 -4.126721149 -2.504122891
 H -4.169139367 -5.344569923 -0.904560352
 H -3.876421623 -3.979470498 -3.499940798
 H  6.874728274 -4.261535528 -7.373802990
 C  7.168004122 -5.254237805 -7.035484673
 C  8.068094637 -5.992843513 -7.808921154
 H  8.462807424 -5.572918366 -8.730928881
 C  8.459262358 -7.264000683 -7.397988953
 H  9.158839180 -7.840140590 -7.998775413
 C  7.956582997 -7.793515479 -6.212302281
 H  8.266870856 -8.784540673 -5.888460699
 C  7.058985889 -7.054082791 -5.433593977
 H  6.715507243 -7.509156349 -4.511923058
 C  6.646968434 -5.776854824 -5.840485210
 C  5.687625970 -4.920776842 -5.070369416
 O  5.482710524 -3.760871962 -5.422340200
 C  4.981277465 -5.496910431 -3.890363454
 C  4.144601430 -4.782776335 -3.123674381
 H  5.130906719 -6.535350554 -3.637478350
 N  3.779850513 -3.470040856 -3.255199288
 H  3.677272566 -5.294363631 -2.288439629
 H  4.200885161 -2.999206584 -4.061364827
