      64
<yaff.system.System object at 0x7fcc455d7790>
 C  2.594721975 -0.803042738 -0.463296744
 C  1.192502366 -0.497212196 -0.218045132
 C  0.065053697 -1.207654423 -0.591075722
 H  0.117972119 -2.139694743 -1.142514618
 C -1.136014647 -0.628168196 -0.220766459
 C -2.493796812 -1.086064864 -0.477627101
 C -1.212416318  0.572343425  0.469936694
 C -2.634581919  0.879079250  0.641083051
 C -0.077288290  1.277983164  0.852371574
 H -0.130718641  2.219027793  1.389272092
 C  1.131286774  0.698479109  0.482625637
 C  2.510597082  1.145897664  0.689299179
 N -3.354717750 -0.136510250  0.035418250
 N  3.344032250  0.208749750  0.102548250
 O -2.977386949  1.885929367  1.234317595
 O -2.674622336 -2.137303305 -1.063707033
 O  2.734903026  2.186746473  1.279923781
 O  2.894996663 -1.814846508 -1.070204593
 C -4.779157750 -0.244520250 -0.079881750
 C  4.776282250  0.250709750  0.090598250
 C -5.598447750  0.885339750 -0.236421750
 C -6.987337750  0.768939750 -0.396281750
 H -5.191987750  1.892079750 -0.255001750
 C -7.593107750 -0.481480250 -0.397281750
 H -7.592377750  1.663179750 -0.526491750
 C -6.810587750 -1.614680250 -0.229201750
 C -5.424057750 -1.494860250 -0.070921750
 H -7.269907750 -2.600490250 -0.224171750
 H -4.878867750 -2.424760250  0.057408250
 C  5.483312250  1.458609750  0.205788250
 C  6.885602250  1.492349750  0.200838250
 H  4.976532250  2.412839750  0.314018250
 C  7.616882250  0.317529750  0.076798250
 H  7.402702250  2.444229750  0.296648250
 C  6.945222250 -0.890780250 -0.041811750
 C  5.544762250 -0.921110250 -0.033961750
 H  7.503602250 -1.818700250 -0.141941750
 H  5.089732250 -1.901230250 -0.138591750
 H -14.311642113 -2.095612567 -0.854402112
 C -13.396319574 -1.507825636 -0.809984891
 C -13.471131716 -0.112015370 -0.907219891
 H -14.441181438  0.366979501 -1.026002152
 C -12.314945070  0.681972112 -0.854943398
 H -12.368327140  1.762179354 -0.930444854
 C -11.079458701  0.039571447 -0.704305194
 N -9.805219326  0.539950047 -0.626357287
 C -11.049003291 -1.341651237 -0.612719135
 O -9.746903709 -1.722594542 -0.477189385
 C -12.168238840 -2.163671477 -0.657771414
 H -12.090085225 -3.240611531 -0.581782662
 C -9.050095236 -0.538251863 -0.496321643
 H  14.311642113  2.095612567  0.854402112
 C  13.396319574  1.507825636  0.809984891
 C  13.471131716  0.112015370  0.907219891
 H  14.441181438 -0.366979501  1.026002152
 C  12.314945070 -0.681972112  0.854943398
 H  12.368327140 -1.762179354  0.930444854
 C  11.079458701 -0.039571447  0.704305194
 N  9.805219326 -0.539950047  0.626357287
 C  11.049003291  1.341651237  0.612719135
 O  9.746903709  1.722594542  0.477189385
 C  12.168238840  2.163671477  0.657771414
 H  12.090085225  3.240611531  0.581782662
 C  9.050095236  0.538251863  0.496321643
