      66
<yaff.system.System object at 0x7f3bde001cd0>
 C  1.212954000  0.700272000  0.000000000
 C  1.208877000 -0.698223000  0.000000000
 C -0.000137000 -1.400767000  0.000000000
 C -1.209188000 -0.698053000  0.000000000
 C -1.213163000  0.700261000  0.000000000
 C  0.000000000  1.395989000  0.000000000
 H -2.145136000 -1.238581000  0.000000000
 H -0.000098000  2.476797000  0.000000000
 H  2.144938000 -1.238545000  0.000000000
 H  5.081358347  5.921896455 -0.135347646
 C  6.041137506  5.414710014 -0.048666070
 C  7.209857931  6.180995420 -0.020301234
 H  7.149585956  7.264765544 -0.083887148
 C  8.449114342  5.556753309  0.090529017
 H  9.359245218  6.151300390  0.112089415
 C  8.519728102  4.168942072  0.179517827
 H  9.487900863  3.681719901  0.271924119
 C  7.350742759  3.399683423  0.156230662
 H  7.465678920  2.325911205  0.247607407
 C  6.095920482  4.013684737  0.033537642
 C  4.797283711  3.266404559 -0.003888074
 O  3.734263948  3.883191921  0.024667832
 C  4.814512871  1.777936181 -0.090127479
 C  3.697650395  1.036068661 -0.081339877
 H  5.758754241  1.262415082 -0.175824088
 N  2.397046681  1.455894939 -0.005232398
 H  3.815833506 -0.040449906 -0.151164264
 H  2.289053080  2.473659080  0.031530323
 H -7.669509716  1.438841542 -0.135347646
 C -7.710287904  2.523623207 -0.048666070
 C -8.958343188  3.152478329 -0.020301234
 H -9.866711224  2.558291570 -0.083887148
 C -9.037521438  4.537817807  0.090529017
 H -10.007536292  5.028628998  0.112089415
 C -7.871035509  5.293011102  0.179517827
 H -7.933299750  6.375077229  0.271924119
 C -6.620273008  4.665413487  0.156230662
 H -5.747900382  5.301937719  0.247607407
 C -6.524442072  3.271715890  0.033537642
 C -5.227873572  2.520852884 -0.003888074
 O -5.230375654  1.291856788  0.024667832
 C -3.947524176  3.280155446 -0.090127479
 C -2.746548143  2.683996258 -0.081339877
 H -3.973314373  4.355650045 -0.175824088
 N -2.459672592  1.347760298 -0.005232398
 H -1.873421065  3.324705694 -0.151164264
 H -3.287015999  0.745257725  0.031530323
 H  2.587237934 -7.361925033 -0.135347646
 C  1.668065281 -7.939450576 -0.048666070
 C  1.747214801 -9.334741266 -0.020301234
 H  2.715883624 -9.824507644 -0.083887148
 C  0.586915491 -10.095753865  0.090529017
 H  0.646655102 -11.181228702  0.112089415
 C -0.650219975 -9.462901455  0.179517827
 H -1.556301260 -10.057679265  0.271924119
 C -0.731811801 -8.065894521  0.156230662
 H -1.719158510 -7.628466157  0.247607407
 C  0.427403156 -7.286281000  0.033537642
 C  0.429679154 -5.787988656 -0.003888074
 O  1.495392091 -5.175866445  0.024667832
 C -0.867927840 -5.058570364 -0.090127479
 C -0.951864446 -3.720398531 -0.081339877
 H -1.786548198 -5.618472503 -0.175824088
 N  0.062091780 -2.804037852 -0.005232398
 H -1.943213156 -3.284408611 -0.151164264
 H  0.997464571 -3.219470404  0.031530323
