     134
<yaff.system.System object at 0x7eff68378ed0>
 C  3.834450000  2.028850000  0.170710000
 C  4.206330000  0.766460000 -0.028510000
 C  3.061750000 -0.118750000 -0.027720000
 C  2.370940000  1.922770000  0.075610000
 N  1.928970000  0.690610000 -0.011520000
 C  1.610010000  3.228620000  0.050410000
 C  0.261520000  3.197680000  0.091160000
 N -0.610890000  2.132640000  0.135180000
 C -1.936010000  2.503710000  0.103780000
 C -0.610970000  4.367110000  0.089560000
 C -1.888450000  3.964100000  0.143740000
 C -3.061790000  1.761380000  0.025080000
 C -2.951580000  0.254180000 -0.012510000
 N -1.879610000 -0.503420000 -0.000070000
 C -3.782560000 -1.754340000  0.057960000
 C -4.212200000 -0.502070000 -0.047320000
 C -0.176010000 -3.028340000 -0.060020000
 N  0.671370000 -1.928970000 -0.029400000
 C  1.995920000 -2.349370000 -0.010440000
 C  1.965000000 -3.733700000  0.015910000
 C  0.639340000 -4.146480000 -0.126480000
 C  3.147630000 -1.476470000 -0.015980000
 C -1.620780000 -2.974640000 -0.017310000
 C -2.336100000 -1.819480000  0.013870000
 H  4.463900000  2.885230000  0.286010000
 H  5.237850000  0.476960000 -0.118110000
 C  2.358930000  4.521340000 -0.050440000
 H -0.306820000  1.166360000  0.052270000
 H -0.301730000  5.398590000  0.063860000
 H -2.734880000  4.629900000  0.185090000
 C -4.397420000  2.434930000 -0.006460000
 H -4.450990000 -2.596530000  0.127720000
 H -5.226140000 -0.160350000 -0.095230000
 H  0.368460000 -0.960990000 -0.016620000
 H  2.820260000 -4.392510000  0.077770000
 H  0.310690000 -5.174130000 -0.203890000
 C  4.531580000 -2.102480000 -0.035610000
 C -2.374400000 -4.291370000  0.032450000
 C -4.741190000  3.311750000 -1.050370000
 C -5.977000000  3.965120000 -1.062590000
 H -4.031900000  3.519110000 -1.850140000
 C -6.911260000  3.708380000 -0.062580000
 H -6.208570000  4.674480000 -1.853500000
 C -6.599060000  2.823450000  0.966560000
 C -5.340520000  2.215570000  1.011330000
 H -7.333480000  2.610180000  1.739570000
 H -5.112220000  1.548090000  1.840350000
 C  3.256720000  4.734290000 -1.112880000
 C  4.070410000  5.869650000 -1.151690000
 H  3.370520000  3.985610000 -1.895730000
 C  3.946060000  6.847820000 -0.169600000
 H  4.807020000  5.983140000 -1.943480000
 C  3.020070000  6.683940000  0.858240000
 C  2.251750000  5.517520000  0.933110000
 H  2.906760000  7.458130000  1.613260000
 H  1.565100000  5.396900000  1.768870000
 C  4.872220000 -3.027410000 -1.039010000
 C  6.122890000 -3.651820000 -1.053390000
 H  4.145120000 -3.295470000 -1.803690000
 C  7.080580000 -3.314800000 -0.101320000
 H  6.344820000 -4.401200000 -1.808820000
 C  6.772130000 -2.389760000  0.892460000
 C  5.494670000 -1.823420000  0.950700000
 H  7.522030000 -2.113930000  1.629310000
 H  5.266900000 -1.133430000  1.760630000
 C -3.297960000 -4.666250000 -0.957890000
 C -3.944920000 -5.905850000 -0.903880000
 H -3.528960000 -3.989670000 -1.777670000
 C -3.627980000 -6.818280000  0.100320000
 H -4.684150000 -6.165690000 -1.657210000
 C -2.689640000 -6.480600000  1.070970000
 C -2.091670000 -5.217730000  1.053630000
 H -2.411560000 -7.200630000  1.836380000
 H -1.358000000 -4.974810000  1.820860000
 B -8.362156619  4.338171953 -0.030550827
 O -9.258378316  4.088287014  0.934773946
 O -8.684724351  5.208661990 -0.998618375
Si -10.781466034  4.353600110  1.340994715
Si -9.907197334  6.066990180 -1.567170221
 O -10.957808893  5.932723026  1.513721462
 O -11.691169644  3.914470459  0.101525153
 H -11.148165440  3.625369036  2.563808727
 O -11.120545805  5.057804306 -1.821338131
 O -10.366684577  7.068216604 -0.408580670
 H -9.535849815  6.786538412 -2.793774471
 B -10.801572396  7.091605260  0.859042044
 H -10.779986590  8.104707980  1.464453265
 B -11.881727449  4.142676055 -1.205488795
 H -12.472937377  3.351462049 -1.851823140
 B  4.691730426  8.088879634 -0.158078903
 O  4.444330285  9.033475094  0.760637765
 O  5.616180219  8.332444013 -1.098837424
Si  4.764076393  10.557930276  1.119805375
Si  6.554299864  9.490802303 -1.675514355
 O  6.341166199  10.668913173  1.354392359
 O  4.420587231  11.436356322 -0.171342634
 H  4.003511247  11.006079080  2.294865531
 O  5.615053425  10.737725158 -2.019420574
 O  7.526816010  9.950198951 -0.492687364
 H  7.306138315  9.038257847 -2.854560191
 B  7.517722382  10.433958426  0.757286982
 H  8.502487630  10.390484936  1.406681528
 B  4.711961283  11.563851253 -1.473464647
 H  3.977257537  12.164152544 -2.175707934
 B  8.426418677 -4.139404126 -0.075925624
 O  9.343462405 -3.825866414  0.850482835
 O  8.741498045 -5.046557606 -1.012277682
Si  10.883042716 -4.039175660  1.223838134
Si  9.966842236 -5.903668328 -1.576468698
 O  11.100287191 -5.604448764  1.463181950
 O  11.747252501 -3.638290827 -0.060339853
 H  11.267195609 -3.247439333  2.400971603
 O  11.149137994 -4.881358751 -1.911628117
 O  10.481521915 -6.840103191 -0.387306304
 H  9.577738909 -6.687008701 -2.757647382
 B  10.952290252 -6.795463796  0.866857276
 H  10.970936192 -7.779720541  1.518207262
 B  11.906172951 -3.922517737 -1.360584017
 H  12.460707670 -3.149457407 -2.059272673
 B -4.448590433 -8.311763969  0.165922097
 O -4.168733880 -9.210856219  1.120291609
 O -5.364514547 -8.623200741 -0.763081551
Si -4.436080628 -10.730184156  1.539064678
Si -6.262715785 -9.834485767 -1.292649111
 O -6.008374036 -10.885698721  1.780454772
 O -4.063240498 -11.646011637  0.282509639
 H -3.660228808 -11.105996710  2.729393177
 O -5.281538157 -11.061080631 -1.589343345
 O -7.218546260 -10.280371852 -0.091197354
 H -7.029997609 -9.454140932 -2.487146090
 B -7.192483773 -10.714473495  1.176642659
 H -8.177927602 -10.679364570  1.825513709
 B -4.350553096 -11.834008810 -1.013169359
 H -3.596019057 -12.435790797 -1.692752828
