      97
<yaff.system.System object at 0x7eff68378e90>
 C -0.000000000  0.000000000 -0.000000000
 C -0.334711000 -3.282421000 -2.523411000
 C -3.282421000  0.334711000  2.523412000
 C  0.334711000  3.282422000 -2.523411000
 C  3.282421000 -0.334711000  2.523412000
 C -1.442915000 -2.894269000 -1.866366000
 C -2.894268000  1.442915000  1.866365000
 C  1.442915000  2.894269000 -1.866366000
 C  2.894269000 -1.442914000  1.866365000
 C -1.355721000 -1.850757000 -1.055712000
 C -1.850756000  1.355721000  1.055713000
 C  1.355722000  1.850757000 -1.055712000
 C  1.850757000 -1.355721000  1.055713000
 C -0.132197000 -1.201023000 -0.847056000
 C -1.201023000  0.132197000  0.847056000
 C  0.132198000  1.201023000 -0.847056000
 C  1.201024000 -0.132198000  0.847056000
 C  0.964755000 -1.566674000 -1.552049000
 C -1.566674000 -0.964756000  1.552050000
 C -0.964756000  1.566674000 -1.552049000
 C  1.566675000  0.964754000  1.552050000
 C  0.874751000 -2.604561000 -2.363589000
 C -2.604559000 -0.874752000  2.363589000
 C -0.874750000  2.604559000 -2.363589000
 C  2.604560000  0.874750000  2.363589000
 H -2.387983000 -3.392116000 -1.994223000
 H -3.392115000  2.387984000  1.994223000
 H  2.387983000  3.392116000 -1.994223000
 H  3.392116000 -2.387983000  1.994223000
 H -2.258597000 -1.552610000 -0.616202000
 H -1.552610000  2.258597000  0.616202000
 H  2.258598000  1.552609000 -0.616202000
 H  1.552610000 -2.258598000  0.616202000
 H  1.907010000 -1.051950000 -1.461484000
 H -1.051950000 -1.907011000  1.461484000
 H -1.907010000  1.051952000 -1.461484000
 H  1.051951000  1.907009000  1.461484000
 H  1.760751000 -2.888643000 -2.847495000
 H -2.888643000 -1.760751000  2.847496000
 H -1.760749000  2.888644000 -2.847495000
 H  2.888643000  1.760751000  2.847496000
 C -1.708808892 -8.272605899 -6.365421824
 C -2.328765550 -8.352952563 -5.117038949
 C -1.014601750 -7.115127682 -6.715402542
 C -0.921082117 -6.051743624 -5.821263983
 C -1.528404999 -6.135146012 -4.557645113
 C -2.256020523 -7.287715027 -4.226445090
 C -0.416979816 -4.421499848 -3.443610444
 N -1.490187758 -5.090529965 -3.619354540
 H -2.880540645 -9.244952587 -4.842111200
 H -0.551761551 -7.034617468 -7.692823198
 H -0.408820367 -5.141396049 -6.111183751
 H -2.745533926 -7.331217354 -3.260703911
 H  0.514274148 -4.678021769 -3.967684405
 H -1.780199433 -9.097844362 -7.064432848
 C -8.529989005  1.607012251  6.044124582
 C -7.583691433  2.633014216  6.077328826
 C -8.344833702  0.528244221  5.180328927
 C -7.215306792  0.460884510  4.368758248
 C -6.252120552  1.482140852  4.411623611
 C -6.462989712  2.582205619  5.255972382
 C -4.452566053  0.404692970  3.404830673
 N -5.103043771  1.485238536  3.603734139
 H -7.726473018  3.481110732  6.737670240
 H -9.087674191 -0.260237207  5.129939148
 H -7.092995521 -0.363051413  3.674951482
 H -5.728918847  3.379254908  5.260896359
 H -4.730729589 -0.535120374  3.901888902
 H -9.410916672  1.656377351  6.673617292
 C  1.708808513  8.272608630 -6.365419712
 C  2.328763599  8.352955793 -5.117036088
 C  1.014602942  7.115129755 -6.715401368
 C  0.921083300  6.051745519 -5.821263021
 C  1.528404588  6.135148392 -4.557643418
 C  2.256018569  7.287718101 -4.226442417
 C  0.416979781  4.421501017 -3.443610238
 N  1.490187266  5.090532220 -3.619352988
 H  2.880537477  9.244956341 -4.842107596
 H  0.551763991  7.034619172 -7.692822585
 H  0.408822803  5.141397461 -6.111183487
 H  2.745530775  7.331220825 -3.260700649
 H -0.514273812  4.678022060 -3.967685288
 H  1.780199067  9.097847230 -7.064430572
 C  8.529986442 -1.607012572  6.044128285
 C  7.583687989 -2.633013697  6.077333330
 C  8.344832417 -0.528245396  5.180331290
 C  7.215305907 -0.460885679  4.368760055
 C  6.252118784 -1.482141156  4.411626207
 C  6.462986657 -2.582205113  5.255976354
 C  4.452565622 -0.404692928  3.404831248
 N  5.103042342 -1.485238812  3.603736254
 H  7.726468576 -3.481109562  6.737675797
 H  9.087673595  0.260235344  5.129940901
 H  7.092995626  0.363049536  3.674952273
 H  5.728915116 -3.379253775  5.260900954
 H  4.730729743  0.535120762  3.901888495
 H  9.410913802 -1.656377681  6.673621425
