      75
<yaff.system.System object at 0x7eff68378f90>
 C  4.027462051 -3.893913718  0.310066179
 C  2.672148051 -4.262318718  0.319743179
 C  1.678672051 -3.300991718  0.229140179
 C  2.003629051 -1.937063718  0.160580179
 C  3.355470051 -1.566913718  0.187692179
 C  4.354395051 -2.527048718  0.261396179
 C  0.941359051 -0.909939718  0.077892179
 N  1.312939051  0.376982282  0.037767179
 C  0.318010051  1.271410282 -0.038992821
 N -0.981642949  0.947974282 -0.075637821
 C -1.260558949 -0.362144718 -0.031325821
 N -0.332144949 -1.325265718  0.045418179
 C  0.676958051  2.706621282 -0.083768821
 C -0.317350949  3.691753282 -0.190296821
 C  0.018704051  5.034651282 -0.245812821
 C  1.360665051  5.440586282 -0.161808821
 C  2.359252051  4.454275282 -0.075031821
 C  2.018771051  3.109724282 -0.036659821
 C -2.682392949 -0.770638718 -0.066681821
 C -3.700649949  0.190456282 -0.135975821
 C -5.035099949 -0.188277718 -0.165449821
 C -5.391426949 -1.548090718 -0.125807821
 C -4.369830949 -2.511469718 -0.093439821
 C -3.039347949 -2.128166718 -0.047251821
 H  0.636350051 -3.590416718  0.220005179
 H  2.423007051 -5.314639718  0.386235179
 H  5.392662051 -2.220384718  0.316972179
 H  3.609547051 -0.515584718  0.158735179
 H -1.353435949  3.384405282 -0.238761821
 H -0.746394949  5.795773282 -0.341783821
 H  3.403496051  4.745260282 -0.073396821
 H  2.789534051  2.352613282  0.021499179
 H -3.429036949  1.237058282 -0.175087821
 H -5.807122949  0.567416282 -0.254919821
 H -4.647001949 -3.558870718 -0.092107821
 H -2.256291949 -2.873402718 -0.005591821
 B  5.131860926 -4.961701069  0.395092047
 O  4.902890390 -6.334666652  0.447416053
 O  6.497009251 -4.687262368  0.430241134
 C  6.150398336 -6.915839216  0.516038607
 C  7.119622252 -5.914221266  0.505596413
 C  6.481383289 -8.255214719  0.586245250
 C  8.469826201 -6.200312772  0.564822226
 C  7.847410202 -8.559585522  0.646820033
 C  8.819613087 -7.554889038  0.636345744
 H  5.719308393 -9.023867351  0.593626744
 H  9.213013074 -5.413399539  0.555986630
 H  8.155102822 -9.596948947  0.702970701
 H  9.867072510 -7.827759256  0.684526273
 B  1.733800430  6.932530404 -0.206180271
 O  3.034239638  7.425688353 -0.129675989
 O  0.817245710  7.974254149 -0.328332188
 C  2.915631980  8.796391078 -0.206180507
 C  1.567703178  9.129920719 -0.326963285
 C  3.908371442  9.756594696 -0.176446326
 C  1.142984180  10.440858300 -0.424242170
 C  3.491574446  11.090408041 -0.274235094
 C  2.139502702  11.424962805 -0.395389105
 H  4.951885099  9.484839978 -0.082275608
 H  0.093090061  10.687097629 -0.517653970
 H  4.234913287  11.878470070 -0.255363782
 H  1.854024397  12.467592899 -0.468706137
 B -6.869839306 -1.972593789 -0.160306313
 O -7.946300434 -1.089231917 -0.193518429
 O -7.314343870 -3.292666705 -0.162585736
 C -9.074164213 -1.880518360 -0.216664462
 C -8.689937790 -3.220204483 -0.197857480
 C -10.401460175 -1.499223722 -0.252811085
 C -9.613187936 -4.247700448 -0.214227008
 C -11.348477541 -2.531314604 -0.269750348
 C -10.963070175 -3.875118334 -0.250885562
 H -10.687179056 -0.455289111 -0.267120197
 H -9.302185556 -5.284374346 -0.199327917
 H -12.402154927 -2.280493631 -0.298093397
 H -11.723482862 -4.646822702 -0.264874016
