      40
<yaff.system.System object at 0x7eff68378f10>
 C  0.000149000  3.538221000  0.000000000
 C -1.208314000  2.825814000  0.000000000
 C -1.234523000  1.426499000  0.000000000
 C  0.000173000  0.711855000  0.000000000
 C  1.234878000  1.426489000  0.000000000
 C  1.208633000  2.825798000  0.000000000
 H -2.147734000  3.368891000  0.000000000
 H  2.148055000  3.368886000  0.000000000
 C  0.000167000 -0.711882000  0.000000000
 C -1.234536000 -1.426518000  0.000000000
 C -1.208310000 -2.825825000  0.000000000
 C  0.000175000 -3.538236000  0.000000000
 C  1.208656000 -2.825835000  0.000000000
 C  1.234871000 -1.426526000  0.000000000
 H -2.147732000 -3.368910000  0.000000000
 H  2.148078000 -3.368915000  0.000000000
 C  2.463326000  0.679235000  0.000000000
 C  2.463326000 -0.679271000  0.000000000
 H  3.399127000  1.228117000  0.000000000
 H  3.399123000 -1.228155000  0.000000000
 C -2.462978000  0.679245000  0.000000000
 C -2.462987000 -0.679261000  0.000000000
 H -3.398774000  1.228133000  0.000000000
 H -3.398787000 -1.228142000  0.000000000
 C  0.000214722  5.018072264  0.000000000
 N -1.184039179  5.654841914 -0.000000000
 C -1.117831194  6.982536681  0.000000000
 N  1.184608972  5.654694592  0.000000000
 C  1.118590693  6.982347109  0.000000000
 N  0.000414370  7.712980073  0.000000000
 H  2.061332336  7.522469635  0.000000000
 H -2.060525750  7.522742440 -0.000000000
 C  0.000244790 -5.018087264 -0.000000000
 N  1.184556995 -5.654748468 -0.000000000
 C  1.118470590 -6.982449292 -0.000000000
 N -1.184091159 -5.654818045 -0.000000000
 C -1.117951305 -6.982464512 -0.000000000
 N  0.000291918 -7.712995080 -0.000000000
 H -2.060643485 -7.522673364 -0.000000000
 H  2.061214609 -7.522568725 -0.000000000
