      54
<yaff.system.System object at 0x7eff68378ed0>
 C -0.000001000 -0.000001000  1.760854000
 C -0.000001000 -0.000001000 -1.760853000
 H  0.583501000 -0.548807000 -2.343561000
 H -0.583501000  0.548807000 -2.343561000
 C  0.925717000 -0.871783000  0.897399000
 C -0.925717000  0.871783000  0.897399000
 C -0.871783000 -0.925717000 -0.897399000
 C  0.871783000  0.925717000 -0.897399000
 C  1.773370000  0.051568000 -0.002829000
 C -1.773370000 -0.051569000 -0.002829000
 C  0.051568000 -1.773370000  0.002829000
 C -0.051569000  1.773370000  0.002829000
 H  2.340312000  0.633966000  0.562907000
 H -2.340313000 -0.633966000  0.562907000
 H  0.633966000 -2.340313000 -0.562907000
 H -0.633966000  2.340312000 -0.562907000
 H  2.368699000 -0.498341000 -0.571393000
 H -2.368700000  0.498341000 -0.571393000
 H -0.498341000 -2.368700000  0.571393000
 H  0.498341000  2.368699000  0.571393000
 H -0.548807000 -0.583501000  2.343561000
 H  0.548807000  0.583501000  2.343561000
 C  1.805924873 -1.700704406  1.750676898
 N  1.232639071 -2.553104167  2.618254518
 C  2.075521610 -3.269108016  3.355848176
 N  3.136684995 -1.561545217  1.617297950
 C  3.873246980 -2.332873099  2.410739417
 N  3.408906372 -3.210192077  3.304519048
 H  4.952350750 -2.240810611  2.323827397
 H  1.638990795 -3.966304152  4.065674693
 C -1.805924742  1.700704831  1.750676620
 N -1.232638799  2.553103836  2.618254890
 C -2.075521225  3.269108119  3.355848256
 N -3.136684892  1.561546764  1.617296783
 C -3.873246755  2.332874975  2.410738044
 N -3.408906002  3.210193276  3.304518264
 H -4.952350545  2.240813389  2.323825311
 H -1.638990295  3.966303663  4.065675283
 C -1.700707438 -1.805919446 -1.750679551
 N -1.478698405 -3.131219052 -1.703500809
 C -2.254717003 -3.868049599 -2.492191353
 N -2.636035672 -1.237955153 -2.532123972
 C -3.347419365 -2.080444321 -3.274528757
 N -3.210273174 -3.408762869 -3.304588297
 H -4.110614766 -1.648223713 -3.915787108
 H -2.096656653 -4.942840631 -2.473848747
 C  1.700707438  1.805919446 -1.750679551
 N  1.478698405  3.131219052 -1.703500809
 C  2.254717003  3.868049599 -2.492191353
 N  2.636035672  1.237955153 -2.532123972
 C  3.347419365  2.080444321 -3.274528757
 N  3.210273174  3.408762869 -3.304588297
 H  4.110614766  1.648223713 -3.915787108
 H  2.096656653  4.942840631 -2.473848747
