     113
<yaff.system.System object at 0x7eff68378e90>
Si -0.000000000  0.000000000 -0.000000000
 C -0.334711000 -3.282421000 -2.523411000
 C -3.282421000  0.334711000  2.523412000
 C  0.334711000  3.282422000 -2.523411000
 C  3.282421000 -0.334711000  2.523412000
 C -1.442915000 -2.894269000 -1.866366000
 C -2.894268000  1.442915000  1.866365000
 C  1.442915000  2.894269000 -1.866366000
 C  2.894269000 -1.442914000  1.866365000
 C -1.355721000 -1.850757000 -1.055712000
 C -1.850756000  1.355721000  1.055713000
 C  1.355722000  1.850757000 -1.055712000
 C  1.850757000 -1.355721000  1.055713000
 C -0.132197000 -1.201023000 -0.847056000
 C -1.201023000  0.132197000  0.847056000
 C  0.132198000  1.201023000 -0.847056000
 C  1.201024000 -0.132198000  0.847056000
 C  0.964755000 -1.566674000 -1.552049000
 C -1.566674000 -0.964756000  1.552050000
 C -0.964756000  1.566674000 -1.552049000
 C  1.566675000  0.964754000  1.552050000
 C  0.874751000 -2.604561000 -2.363589000
 C -2.604559000 -0.874752000  2.363589000
 C -0.874750000  2.604559000 -2.363589000
 C  2.604560000  0.874750000  2.363589000
 H -2.387983000 -3.392116000 -1.994223000
 H -3.392115000  2.387984000  1.994223000
 H  2.387983000  3.392116000 -1.994223000
 H  3.392116000 -2.387983000  1.994223000
 H -2.258597000 -1.552610000 -0.616202000
 H -1.552610000  2.258597000  0.616202000
 H  2.258598000  1.552609000 -0.616202000
 H  1.552610000 -2.258598000  0.616202000
 H  1.907010000 -1.051950000 -1.461484000
 H -1.051950000 -1.907011000  1.461484000
 H -1.907010000  1.051952000 -1.461484000
 H  1.051951000  1.907009000  1.461484000
 H  1.760751000 -2.888643000 -2.847495000
 H -2.888643000 -1.760751000  2.847496000
 H -1.760749000  2.888644000 -2.847495000
 H  2.888643000  1.760751000  2.847496000
 C -0.371319183 -4.454558078 -3.455867752
 O  0.628071112 -4.716505266 -4.121505895
 N -1.554782950 -5.179974458 -3.501835275
 H -2.329862843 -4.980850728 -2.887010435
 N -1.666207470 -6.222320678 -4.373469221
 C -2.820405099 -6.805345564 -4.415970951
 C -3.076600257 -7.939866669 -5.324425196
 H -3.664149234 -6.473060925 -3.784967976
 C -4.361840508 -8.486282494 -5.383367795
 C -4.618977069 -9.553464896 -6.246272648
 H -5.167562922 -8.090420120 -4.771822178
 C -3.596228962 -10.071627031 -7.042633991
 H -5.616740974 -9.981828323 -6.301298436
 C -2.313971166 -9.525463886 -6.980516126
 H -3.797911374 -10.902161087 -7.714865886
 C -2.051893965 -8.457735488 -6.122188781
 H -1.517064325 -9.927901219 -7.600932555
 H -1.050553743 -8.032797219 -6.079489665
 C -4.459237848  0.369468368  3.450026868
 O -4.849167859 -0.680540031  3.955900742
 N -5.037336286  1.611197476  3.679895189
 H -4.645318835  2.462568218  3.305864628
 N -6.145844695  1.696454424  4.468937116
 C -6.674739087  2.872061068  4.579011289
 C -7.883560689  3.098869896  5.394714238
 H -6.252791433  3.751267543  4.059936965
 C -8.456119450  4.373770426  5.421021824
 C -9.605596117  4.598359060  6.181196549
 H -8.024248455  5.193734471  4.854426661
 C -10.176398531  3.554791391  6.911845714
 H -10.059707556  5.585939440  6.204080339
 C -9.601855138  2.283758189  6.885155758
 H -11.072056710  3.730716780  7.502781429
 C -8.455004899  2.052974199  6.125598321
 H -10.046184026  1.470282974  7.453277909
 H -8.012089582  1.058744030  6.105340503
 C  0.371319130  4.454559202 -3.455867598
 O -0.628070630  4.716505458 -4.121506910
 N  1.554782229  5.179976765 -3.501833638
 H  2.329861585  4.980853749 -2.887007890
 N  1.666206752  6.222323179 -4.373467352
 C  2.820403852  6.805349218 -4.415967649
 C  3.076598965  7.939870664 -5.324421481
 H  3.664147564  6.473065360 -3.784963697
 C  4.361838742  8.486287774 -5.383362493
 C  4.618975272  9.553470514 -6.246266937
 H  5.167560820  8.090426145 -4.771815950
 C  3.596227600  10.071631705 -7.042629454
 H  5.616738816  9.981834941 -6.301291492
 C  2.313970274  9.525467277 -6.980513172
 H  3.797909988  10.902166026 -7.714861029
 C  2.051893111  8.457738538 -6.122186241
 H  1.517063773  9.927903876 -7.600930515
 H  1.050553261  8.032799267 -6.079488362
 C  4.459237427 -0.369468280  3.450027405
 O  4.849168114  0.680540382  3.955900215
 N  5.037334718 -1.611197608  3.679897423
 H  4.645316704 -2.462568456  3.305867693
 N  6.145842721 -1.696454571  4.468939918
 C  6.674736073 -2.872061533  4.579015690
 C  7.883557138 -3.098870430  5.394719415
 H  6.252787893 -3.751268258  4.059942217
 C  8.456114808 -4.373771414  5.421028734
 C  9.605590965 -4.598360132  6.181204207
 H  8.024243359 -5.193735757  4.854434348
 C  10.176393954 -3.554792090  6.911852391
 H  10.059701558 -5.585940869  6.204089344
 C  9.601851648 -2.283758433  6.885160705
 H  11.072051735 -3.730717546  7.502788690
 C  8.455001924 -2.052974362  6.125602514
 H  10.046180985 -1.470282929  7.453282092
 H  8.012087458 -1.058743841  6.105343346
