      48
<yaff.system.System object at 0x7ffb67b77dd0>
 C -0.000000000  3.577958000 -0.000000182
 C  1.133739000  2.852350000 -0.402520182
 C  1.135339000  1.463226000 -0.401762182
 C -0.000000000  0.741600000 -0.000000182
 C -1.135339000  1.463225000  0.401761818
 C -1.133738000  2.852349000  0.402519818
 C -0.000000000 -0.741600000 -0.000000182
 C -1.135339000 -1.463226000 -0.401762182
 C -1.133739000 -2.852350000 -0.402520182
 C -0.000000000 -3.577958000 -0.000000182
 C  1.133738000 -2.852349000  0.402519818
 C  1.135339000 -1.463225000  0.401761818
 H -2.020512000 -3.385811000 -0.727052182
 H -2.020512000  3.385812000  0.727052818
 H  2.020512000 -3.385812000  0.727052818
 H  2.020512000  3.385811000 -0.727052182
 H -2.015826000 -0.929067000 -0.740072182
 H -2.015827000  0.929068000  0.740072818
 H  2.015826000  0.929067000 -0.740072182
 H  2.015827000 -0.929068000  0.740072818
 N -0.060234348  4.976841497 -0.036080862
 C  0.889083183  5.675593652  0.454812787
 C  0.918472789  7.140730911  0.387209984
 C  1.986029901  7.831655892  0.976410755
 C  2.043363755  9.222371100  0.926422435
 C  1.031888245  9.935630915  0.286100930
 C -0.037325227  9.254287416 -0.303896949
 C -0.096075490  7.868131945 -0.255923608
 H  1.736226750  5.205764059  0.974078925
 H  2.773147750  7.275135036  1.475471953
 H  2.873459867  9.747245992  1.385167767
 H  1.073515488  11.018299918  0.245484637
 H -0.823584207  9.810599085 -0.801709807
 H -0.917621971  7.326541863 -0.708529917
 N  0.060234338 -4.976843499 -0.036080625
 C -0.889083059 -5.675595629  0.454813316
 C -0.918472684 -7.140732891  0.387210597
 C -1.986029636 -7.831657842  0.976411692
 C -2.043363504 -9.222373053  0.926423458
 C -1.031888168 -9.935632901  0.286101715
 C  0.037325144 -9.254289432 -0.303896489
 C  0.096075421 -7.868133958 -0.255923235
 H -1.736226486 -5.205766010  0.974079660
 H -2.773147350 -7.275136961  1.475473075
 H -2.873459491 -9.747247921  1.385169042
 H -1.073515422 -11.018301905  0.245485489
 H  0.823583990 -9.810601126 -0.801709532
 H  0.917621778 -7.326543899 -0.708529794
