      81
<yaff.system.System object at 0x7eff68378e90>
 C  4.027462051 -3.893913718  0.310066179
 C  2.672148051 -4.262318718  0.319743179
 C  1.678672051 -3.300991718  0.229140179
 C  2.003629051 -1.937063718  0.160580179
 C  3.355470051 -1.566913718  0.187692179
 C  4.354395051 -2.527048718  0.261396179
 C  0.941359051 -0.909939718  0.077892179
 N  1.312939051  0.376982282  0.037767179
 C  0.318010051  1.271410282 -0.038992821
 N -0.981642949  0.947974282 -0.075637821
 C -1.260558949 -0.362144718 -0.031325821
 N -0.332144949 -1.325265718  0.045418179
 C  0.676958051  2.706621282 -0.083768821
 C -0.317350949  3.691753282 -0.190296821
 C  0.018704051  5.034651282 -0.245812821
 C  1.360665051  5.440586282 -0.161808821
 C  2.359252051  4.454275282 -0.075031821
 C  2.018771051  3.109724282 -0.036659821
 C -2.682392949 -0.770638718 -0.066681821
 C -3.700649949  0.190456282 -0.135975821
 C -5.035099949 -0.188277718 -0.165449821
 C -5.391426949 -1.548090718 -0.125807821
 C -4.369830949 -2.511469718 -0.093439821
 C -3.039347949 -2.128166718 -0.047251821
 H  0.636350051 -3.590416718  0.220005179
 H  2.423007051 -5.314639718  0.386235179
 H  5.392662051 -2.220384718  0.316972179
 H  3.609547051 -0.515584718  0.158735179
 H -1.353435949  3.384405282 -0.238761821
 H -0.746394949  5.795773282 -0.341783821
 H  3.403496051  4.745260282 -0.073396821
 H  2.789534051  2.352613282  0.021499179
 H -3.429036949  1.237058282 -0.175087821
 H -5.807122949  0.567416282 -0.254919821
 H -4.647001949 -3.558870718 -0.092107821
 H -2.256291949 -2.873402718 -0.005591821
 B  5.165576186 -4.977725456  0.431983914
 O  6.456503479 -4.615861882  0.440302975
 O  4.862505160 -6.282700094  0.496379330
Si  7.935130855 -5.215983698  0.346935753
Si  5.527412320 -7.735551481  0.457136588
 O  8.140308611 -6.169988128  1.612770715
 O  7.993678494 -6.145143014 -0.953031725
 H  8.946956471 -4.151298183  0.294813413
 O  6.407585958 -7.820962574 -0.874505736
 O  6.537829130 -7.831235161  1.692375483
 H  4.509819513 -8.795124150  0.502050535
 B  7.613165811 -7.237260364  2.228460133
 H  7.913755698 -7.473307709  3.345282941
 B  7.405384146 -7.205600161 -1.524009772
 H  7.545684524 -7.393096369 -2.680927160
 B  1.728895377  6.973259316 -0.173444881
 O  0.774878751  7.904777121 -0.313568347
 O  3.006462809  7.369925485 -0.076310806
Si  0.567253124  9.467578612 -0.577662358
Si  3.938183341  8.663167060 -0.193961812
 O  1.220987125  10.247536524  0.654757225
 O  1.416756298  9.850730680 -1.876977237
 H -0.854102620  9.802120070 -0.744674106
 O  3.650939699  9.329424239 -1.618343934
 O  3.450603748  9.704962501  0.916371932
 H  5.358373217  8.320385029 -0.033438233
 B  2.372554080  10.388207041  1.325673292
 H  2.365170236  10.877102896  2.400053176
 B  2.659613942  9.815949989 -2.377747354
 H  2.817764415  9.913844648 -3.543381058
 B -6.903412578 -1.993865335 -0.126029990
 O -7.233330388 -3.293197813 -0.145956804
 O -7.885263674 -1.080221172 -0.139460933
Si -8.479454362 -4.275123849 -0.341402067
Si -9.467820143 -0.931566528 -0.306300673
 O -9.507411832 -3.978587266  0.846002671
 O -9.206738173 -3.860639145 -1.703731320
 H -8.058574757 -5.683142965 -0.361541246
 O -9.872166318 -1.650061723 -1.675804522
 O -10.152189810 -1.761079886  0.876686381
 H -9.880835681  0.478909039 -0.292755804
 B -10.216828905 -2.990045880  1.407728905
 H -10.660004120 -3.134207027  2.492246819
 B -9.784448210 -2.820990092 -2.321838503
 H -9.923161982 -2.847564276 -3.493738315
