      48
<yaff.system.System object at 0x7eff6837e1d0>
 C  1.212954000  0.700272000  0.000000000
 C  1.208877000 -0.698223000  0.000000000
 C -0.000137000 -1.400767000  0.000000000
 C -1.209188000 -0.698053000  0.000000000
 C -1.213163000  0.700261000  0.000000000
 C  0.000000000  1.395989000  0.000000000
 H -2.145136000 -1.238581000  0.000000000
 H -0.000098000  2.476797000  0.000000000
 H  2.144938000 -1.238545000  0.000000000
 H  6.537212849  5.122005868 -0.231567383
 C  5.976014140  4.190597584 -0.178498243
 C  6.668569966  2.973848387 -0.121703714
 H  7.756891829  2.974223637 -0.131560514
 C  5.982820766  1.751170742 -0.052972897
 H  6.514784256  0.807493992 -0.009535152
 C  4.582490371  1.779459034 -0.044510818
 N  3.659303761  0.767166669  0.011446804
 C  3.936492369  3.002727667 -0.102752338
 O  2.593682492  2.767129352 -0.085302203
 C  4.576194920  4.234297512 -0.169472350
 H  4.023535876  5.163979660 -0.213531876
 C  2.497016879  1.397890859 -0.018838811
 H -7.704902692  3.099589752 -0.231567383
 C -6.617677770  3.079406788 -0.178498243
 C -5.910359133  4.287633805 -0.121703714
 H -6.454953579  5.229897838 -0.131560514
 C -4.508616653  4.305257859 -0.052972897
 H -3.957457777  5.237853621 -0.009535152
 C -3.832808523  3.078469852 -0.044510818
 N -2.494510532  2.785267127  0.011446804
 C -4.569056337  1.907300043 -0.102752338
 O -3.693496899  0.862292578 -0.085302203
 C -5.955471259  1.845354086 -0.169472350
 H -6.484161420  0.901835337 -0.213531876
 C -2.459437997  1.463339097 -0.018838811
 H  1.166515466 -8.222671772 -0.231567383
 C  0.640568592 -7.270912733 -0.178498243
 C -0.759444335 -7.262195795 -0.121703714
 H -1.303356564 -8.204853796 -0.131560514
 C -1.475342118 -6.056922817 -0.052972897
 H -2.558570996 -6.045690692 -0.009535152
 C -0.750581564 -4.858403905 -0.044510818
 N -1.165553520 -3.552721085  0.011446804
 C  0.631794922 -4.910699391 -0.102752338
 O  1.099269357 -3.630030588 -0.085302203
 C  1.378419766 -6.080543388 -0.169472350
 H  2.459878758 -6.066855194 -0.213531876
 C -0.038130984 -2.861604433 -0.018838811
