      80
CELL: None
 C  1.234453992 -1.426759995  0.000000000
 C -0.000092000 -0.711954995  0.000000000
 C -1.234639993 -1.426757995  0.000000000
 C  1.234453992  1.426822994  0.000000000
 C -0.000092000  0.712017999  0.000000000
 C -1.234638992  1.426821994  0.000000000
 C -2.463093988  0.679315996  0.000000000
 C -2.463093988 -0.679249997  0.000000000
 C  2.462907988  0.679312995  0.000000000
 C  2.462907988 -0.679252997  0.000000000
 C -1.207109993 -2.826270984  0.000000000
 C -0.000095000 -3.540777984  0.000000000
 C  1.206919992 -2.826273984  0.000000000
 C -1.207093996  2.826333988  0.000000000
 C -0.000075000  3.540844983  0.000000000
 C  1.206933994  2.826336988  0.000000000
 B -0.000123000 -5.093062977  0.000000000
 B -0.000131000  5.093127976  0.000000000
 O -1.188435996  5.800242958  0.000000000
 O  1.188580996  5.799971966  0.000000000
 O -1.188659997 -5.800005992  0.000000000
 O  1.188369992 -5.800054994  0.000000000
 H -2.145131989 -3.371100984  0.000000000
 H -3.398897986 -1.228256994  0.000000000
 H -3.398897986  1.228321992  0.000000000
 H -2.145117987  3.371165983  0.000000000
 H  2.144955990  3.371163983  0.000000000
 H  3.398711985  1.228318992  0.000000000
 H  3.398712985 -1.228257994  0.000000000
 H  2.144943988 -3.371100984  0.000000000
 B -1.206559993  7.183322946  0.000000000
 O  0.000307000  7.859380962  0.000000000
 B  1.207110993  7.182830970  0.000000000
 C -2.550121985  7.959320946  0.000000000
 C -2.571904988  9.364428941  0.000000000
 C -3.775778983  10.063491931  0.000000000
 C -4.984129976  9.366176973  0.000000000
 C -4.985251974  7.971044973  0.000000000
 C -3.778553983  7.276896982  0.000000000
 H -1.633505990  9.907538962  0.000000000
 H -3.775643979  11.147911923  0.000000000
 H -5.923243955  9.908988961  0.000000000
 H -5.924882976  7.429685947  0.000000000
 H -3.780830980  6.192640981  0.000000000
 C  2.550678986  7.958825954  0.000000000
 C  2.572580986  9.363912941  0.000000000
 C  3.776530981  10.062850938  0.000000000
 C  4.984816975  9.365422948  0.000000000
 C  4.985807975  7.970290948  0.000000000
 C  3.779038979  7.276266943  0.000000000
 H  1.634235990  9.907114933  0.000000000
 H  3.776495981  11.147269925  0.000000000
 H  5.923982951  9.908146934  0.000000000
 H  5.925387970  7.428841962  0.000000000
 H  3.781205981  6.192008985  0.000000000
 B -1.206909996 -7.183039942  0.000000000
 O -0.000114000 -7.859295976  0.000000000
 B  1.206808992 -7.182965963  0.000000000
 C  2.550255989 -7.959120970  0.000000000
 C  3.778769982 -7.276842953  0.000000000
 C  4.985388973 -7.971127948  0.000000000
 C  4.984088975 -9.366259948  0.000000000
 C  3.775655981 -10.063427953  0.000000000
 C  2.571857987 -9.364232934  0.000000000
 H  3.781174982 -6.192583989  0.000000000
 H  5.925086974 -7.429886981  0.000000000
 H  5.923135950 -9.909190948  0.000000000
 H  3.775401981 -11.147848951  0.000000000
 H  1.633390990 -9.907212936  0.000000000
 C -2.550523985 -7.958987935  0.000000000
 C -2.572423989 -9.364089951  0.000000000
 C -3.776352981 -10.063059963  0.000000000
 C -4.984651977 -9.365655945  0.000000000
 C -4.985664976 -7.970524950  0.000000000
 C -3.778909982 -7.276473957  0.000000000
 H -1.634069993 -9.907276967  0.000000000
 H -3.776298979 -11.147480961  0.000000000
 H -5.923807952 -9.908396970  0.000000000
 H -5.925253982 -7.429090940  0.000000000
 H -3.781104982 -6.192217957  0.000000000
