      58
<yaff.system.System object at 0x7eff68378ed0>
 C  0.000149000  3.538221000  0.000000000
 C -1.208314000  2.825814000  0.000000000
 C -1.234523000  1.426499000  0.000000000
 C  0.000173000  0.711855000  0.000000000
 C  1.234878000  1.426489000  0.000000000
 C  1.208633000  2.825798000  0.000000000
 H -2.147734000  3.368891000  0.000000000
 H  2.148055000  3.368886000  0.000000000
 C  0.000167000 -0.711882000  0.000000000
 C -1.234536000 -1.426518000  0.000000000
 C -1.208310000 -2.825825000  0.000000000
 C  0.000175000 -3.538236000  0.000000000
 C  1.208656000 -2.825835000  0.000000000
 C  1.234871000 -1.426526000  0.000000000
 H -2.147732000 -3.368910000  0.000000000
 H  2.148078000 -3.368915000  0.000000000
 C  2.463326000  0.679235000  0.000000000
 C  2.463326000 -0.679271000  0.000000000
 H  3.399127000  1.228117000  0.000000000
 H  3.399123000 -1.228155000  0.000000000
 C -2.462978000  0.679245000  0.000000000
 C -2.462987000 -0.679261000  0.000000000
 H -3.398774000  1.228133000  0.000000000
 H -3.398787000 -1.228142000  0.000000000
 C -0.040360887  5.012499770  0.005131725
 N  1.030861123  5.740784020 -0.028710850
 H -1.040977135  5.481874761  0.035735979
 N  0.698476996  7.093706149 -0.034808301
 C  1.762304162  7.831536137 -0.076447726
 C  1.695735815  9.305013856 -0.116634944
 H  2.769124489  7.375221723 -0.089667564
 C  2.888980822  10.031229973 -0.174963818
 C  2.849438196  11.425895179 -0.230220569
 H  3.849940519  9.523893310 -0.181427272
 C  1.622677371  12.091227628 -0.226378696
 H  3.774599685  11.994926978 -0.278613304
 C  0.432439032  11.365568498 -0.165245342
 H  1.593673843  13.177293951 -0.272140168
 C  0.466451419  9.971138643 -0.110058774
 H -0.522502756  11.885112876 -0.162920933
 H -0.464449228  9.411082075 -0.065631802
 C  0.040819888 -5.012511055  0.005131725
 N -1.030335427 -5.740893394 -0.028710850
 H  1.041479113 -5.481794416  0.035735979
 N -0.697827412 -7.093785081 -0.034808301
 C -1.761587010 -7.831712481 -0.076447726
 C -1.694883735 -9.305184099 -0.116634944
 H -2.768449119 -7.375490265 -0.089667564
 C -2.888062237 -10.031509480 -0.174963818
 C -2.848391900 -11.426171059 -0.230220569
 H -3.849068387 -9.524260815 -0.181427272
 C -1.621570155 -12.091391169 -0.226378696
 H -3.773501278 -11.995287574 -0.278613304
 C -0.431398271 -11.365623051 -0.165245342
 H -1.592467174 -13.177454832 -0.272140168
 C -0.465538347 -9.971196316 -0.110058774
 H  0.523591089 -11.885079981 -0.162920933
 H  0.465311011 -9.411054506 -0.065631802
