      38
<yaff.system.System object at 0x7f192d1b9510>
 C -0.000013000 -1.415145000  0.000000000
 C  0.000013000  1.415145000  0.000000000
 C -1.206999000 -0.694755000  0.000000000
 C  1.206999000  0.694755000  0.000000000
 C -1.206984000  0.694770000  0.000000000
 C  1.206984000 -0.694770000  0.000000000
 H  2.148535000 -1.233078000  0.000000000
 H -2.148535000  1.233078000  0.000000000
 H  2.148565000  1.233036000  0.000000000
 H -2.148565000 -1.233036000  0.000000000
 C -0.835752978 -7.803236756 -0.212037559
 C -1.740168168 -7.158287576  0.633737451
 C  0.017466425 -7.045250343 -1.013061361
 C -0.015236435 -5.654215946 -0.958571304
 C -0.911323741 -5.001407704 -0.096365628
 C -1.791965785 -5.769615747  0.679430179
 C  0.043374309 -2.880920677 -0.025593073
 N -1.009652178 -3.602837684 -0.010308323
 H -2.415182475 -7.740605614  1.250962251
 H  0.705250656 -7.538119993 -1.691358083
 H  0.626684607 -5.069690504 -1.607775174
 H -2.499629837 -5.256745951  1.320014296
 H  1.047570770 -3.326972834 -0.043422715
 H -0.808006791 -8.885760146 -0.257915655
 C  0.835752978  7.803236756  0.212037559
 C  1.740168168  7.158287576 -0.633737451
 C -0.017466425  7.045250343  1.013061361
 C  0.015236435  5.654215946  0.958571304
 C  0.911323741  5.001407704  0.096365628
 C  1.791965785  5.769615747 -0.679430179
 C -0.043374309  2.880920677  0.025593073
 N  1.009652178  3.602837684  0.010308323
 H  2.415182475  7.740605614 -1.250962251
 H -0.705250656  7.538119993  1.691358083
 H -0.626684607  5.069690504  1.607775174
 H  2.499629837  5.256745951 -1.320014296
 H -1.047570770  3.326972834  0.043422715
 H  0.808006791  8.885760146  0.257915655
