     150
<yaff.system.System object at 0x7f3bde001790>
 C  3.834450000  2.028850000  0.170710000
 C  4.206330000  0.766460000 -0.028510000
 C  3.061750000 -0.118750000 -0.027720000
 C  2.370940000  1.922770000  0.075610000
 N  1.928970000  0.690610000 -0.011520000
 C  1.610010000  3.228620000  0.050410000
 C  0.261520000  3.197680000  0.091160000
 N -0.610890000  2.132640000  0.135180000
 C -1.936010000  2.503710000  0.103780000
 C -0.610970000  4.367110000  0.089560000
 C -1.888450000  3.964100000  0.143740000
 C -3.061790000  1.761380000  0.025080000
 C -2.951580000  0.254180000 -0.012510000
 N -1.879610000 -0.503420000 -0.000070000
 C -3.782560000 -1.754340000  0.057960000
 C -4.212200000 -0.502070000 -0.047320000
 C -0.176010000 -3.028340000 -0.060020000
 N  0.671370000 -1.928970000 -0.029400000
 C  1.995920000 -2.349370000 -0.010440000
 C  1.965000000 -3.733700000  0.015910000
 C  0.639340000 -4.146480000 -0.126480000
 C  3.147630000 -1.476470000 -0.015980000
 C -1.620780000 -2.974640000 -0.017310000
 C -2.336100000 -1.819480000  0.013870000
 H  4.463900000  2.885230000  0.286010000
 H  5.237850000  0.476960000 -0.118110000
 C  2.358930000  4.521340000 -0.050440000
 H -0.306820000  1.166360000  0.052270000
 H -0.301730000  5.398590000  0.063860000
 H -2.734880000  4.629900000  0.185090000
 C -4.397420000  2.434930000 -0.006460000
 H -4.450990000 -2.596530000  0.127720000
 H -5.226140000 -0.160350000 -0.095230000
 H  0.368460000 -0.960990000 -0.016620000
 H  2.820260000 -4.392510000  0.077770000
 H  0.310690000 -5.174130000 -0.203890000
 C  4.531580000 -2.102480000 -0.035610000
 C -2.374400000 -4.291370000  0.032450000
 C -4.741190000  3.311750000 -1.050370000
 C -5.977000000  3.965120000 -1.062590000
 H -4.031900000  3.519110000 -1.850140000
 C -6.911260000  3.708380000 -0.062580000
 H -6.208570000  4.674480000 -1.853500000
 C -6.599060000  2.823450000  0.966560000
 C -5.340520000  2.215570000  1.011330000
 H -7.333480000  2.610180000  1.739570000
 H -5.112220000  1.548090000  1.840350000
 C  3.256720000  4.734290000 -1.112880000
 C  4.070410000  5.869650000 -1.151690000
 H  3.370520000  3.985610000 -1.895730000
 C  3.946060000  6.847820000 -0.169600000
 H  4.807020000  5.983140000 -1.943480000
 C  3.020070000  6.683940000  0.858240000
 C  2.251750000  5.517520000  0.933110000
 H  2.906760000  7.458130000  1.613260000
 H  1.565100000  5.396900000  1.768870000
 C  4.872220000 -3.027410000 -1.039010000
 C  6.122890000 -3.651820000 -1.053390000
 H  4.145120000 -3.295470000 -1.803690000
 C  7.080580000 -3.314800000 -0.101320000
 H  6.344820000 -4.401200000 -1.808820000
 C  6.772130000 -2.389760000  0.892460000
 C  5.494670000 -1.823420000  0.950700000
 H  7.522030000 -2.113930000  1.629310000
 H  5.266900000 -1.133430000  1.760630000
 C -3.297960000 -4.666250000 -0.957890000
 C -3.944920000 -5.905850000 -0.903880000
 H -3.528960000 -3.989670000 -1.777670000
 C -3.627980000 -6.818280000  0.100320000
 H -4.684150000 -6.165690000 -1.657210000
 C -2.689640000 -6.480600000  1.070970000
 C -2.091670000 -5.217730000  1.053630000
 H -2.411560000 -7.200630000  1.836380000
 H -1.358000000 -4.974810000  1.820860000
 C -8.287041994  4.307063717 -0.150459662
 O -8.486647325  5.097501150 -1.070578938
 C -9.344716845  4.033465366  0.864301415
 C -10.528335808  4.663426446  0.868950988
 H -9.168748249  3.290311291  1.626833218
 N -10.988895893  5.616999174  0.001656384
 H -11.232642655  4.391616720  1.648570291
 C -12.223908203  6.285915879 -0.017420289
 H -10.332321506  5.849578009 -0.749126622
 C -13.215560305  6.112966233  0.957380667
 C -12.496183269  7.171727446 -1.071582471
 C -14.433313469  6.799072575  0.884839059
 H -13.064136572  5.445694823  1.798537989
 C -14.681852712  7.672280484 -0.168997104
 H -15.184700364  6.647711070  1.655286804
 C -13.712250162  7.859386679 -1.149057127
 H -11.755321503  7.332926600 -1.851284673
 H -15.627444407  8.204408749 -0.225476542
 H -13.898714861  8.539005572 -1.976158813
 C  4.662147533  8.010521179 -0.276285768
 O  5.498892531  8.136916074 -1.167989331
 C  4.396640843  9.119331785  0.684608309
 C  5.081057757  10.272255502  0.671692346
 H  3.614787333  9.008068176  1.420151086
 N  6.090730972  10.653806302 -0.170088776
 H  4.810472988  11.018855283  1.411359547
 C  6.817444913  11.855304181 -0.206947667
 H  6.323212305  9.957792779 -0.884494521
 C  6.650938215  12.892028310  0.720953715
 C  7.758408380  12.044524361 -1.231075213
 C  7.396226790  14.073375623  0.632125615
 H  5.942689708  12.804954036  1.537365403
 C  8.323476983  14.239490975 -0.391323083
 H  7.248457430  14.861113760  1.366097782
 C  8.505373270  13.223920302 -1.324696230
 H  7.916879684  11.266473331 -1.974257753
 H  8.901568119  15.156836330 -0.460476588
 H  9.227012311  13.345971051 -2.127870454
 C  8.347270603 -4.115501940 -0.194889172
 O  8.538982929 -4.943144295 -1.083431587
 C  9.426507864 -3.772510964  0.775098619
 C  10.623905662 -4.375887887  0.773987701
 H  9.255070008 -2.998866470  1.507751971
 N  11.081621846 -5.358377858 -0.061970326
 H  11.343438751 -4.053182828  1.519553592
 C  12.330604392 -6.000647348 -0.086493495
 H  10.409701974 -5.639539533 -0.781921547
 C  13.345043989 -5.761446685  0.850105523
 C  12.593355047 -6.928168689 -1.106650348
 C  14.575669572 -6.423727993  0.773482354
 H  13.202082636 -5.059420827  1.664014406
 C  14.814420545 -7.339159361 -0.246232238
 H  15.344752266 -6.220722079  1.514011021
 C  13.822192368 -7.592265351 -1.188079406
 H  11.834755719 -7.141200146 -1.856277927
 H  15.769988924 -7.852795150 -0.305909853
 H  14.000849493 -8.305216360 -1.988410971
 C -4.421744188 -8.237106398  0.044705001
 O -5.254000420 -8.426626763 -0.839989692
 C -4.118166037 -9.297932286  1.047581332
 C -4.762797176 -10.473168352  1.080707041
 H -3.340307994 -9.131480063  1.776915411
 N -5.759145190 -10.921458598  0.256120502
 H -4.466598141 -11.180715112  1.848417034
 C -6.444397621 -12.147579871  0.267283561
 H -6.015525695 -10.262145710 -0.484442470
 C -6.242236334 -13.141079892  1.234553376
 C -7.378712239 -12.408556934 -0.747113265
 C -6.946759563 -14.349736212  1.193033679
 H -5.537085006 -12.998145790  2.045760729
 C -7.868158070 -14.587145028  0.178392703
 H -6.771900726 -15.102779207  1.956861496
 C -8.084979184 -13.615508437 -0.793495368
 H -7.563939088 -11.665912092 -1.519749338
 H -8.414594346 -15.525681398  0.145974388
 H -8.802313498 -13.793313314 -1.590091270
