      46
<yaff.system.System object at 0x7f192d1c5ed0>
 F  1.342850000 -2.363239000 -0.181050000
 C  0.684160000 -1.200169000 -0.092040000
 C -0.709070000 -1.188689000 -0.034700000
 F -1.391880000 -2.340709000 -0.068500000
 C -1.404610000  0.011571000  0.057810000
 C -0.684160000  1.200171000  0.092040000
 F -1.342850000  2.363241000  0.181050000
 C  0.709070000  1.188691000  0.034700000
 F  1.391880000  2.340711000  0.068500000
 C  1.404610000 -0.011579000 -0.057810000
 C -2.901186361 -0.052950296  0.086398105
 O -3.463122424 -1.039093384 -0.385005226
 N -3.562547726  1.026384739  0.657857160
 H -3.066714884  1.785139155  1.101535212
 N -4.925671415  1.049455799  0.660744524
 C -5.473912378  2.118216071  1.141452242
 C -6.940539341  2.274619816  1.192505451
 H -4.870226391  2.961415265  1.522320132
 C -7.479759429  3.478794155  1.654125257
 C -8.865739429  3.642367740  1.697776102
 H -6.837395638  4.293747679  1.975222100
 C -9.705986687  2.606982246  1.284667758
 H -9.293471659  4.577173534  2.051667529
 C -9.165120535  1.405549162  0.826017329
 H -10.785159311  2.735871372  1.318318536
 C -7.781332909  1.237412881  0.777890223
 H -9.818766658  0.598960628  0.503380461
 H -7.363881811  0.299310767  0.416259210
 C  2.901186361  0.052950296 -0.086398105
 O  3.463122424  1.039093384  0.385005226
 N  3.562547726 -1.026384739 -0.657857160
 H  3.066714884 -1.785139155 -1.101535212
 N  4.925671415 -1.049455799 -0.660744524
 C  5.473912378 -2.118216071 -1.141452242
 C  6.940539341 -2.274619816 -1.192505451
 H  4.870226391 -2.961415265 -1.522320132
 C  7.479759429 -3.478794155 -1.654125257
 C  8.865739429 -3.642367740 -1.697776102
 H  6.837395638 -4.293747679 -1.975222100
 C  9.705986687 -2.606982246 -1.284667758
 H  9.293471659 -4.577173534 -2.051667529
 C  9.165120535 -1.405549162 -0.826017329
 H  10.785159311 -2.735871372 -1.318318536
 C  7.781332909 -1.237412881 -0.777890223
 H  9.818766658 -0.598960628 -0.503380461
 H  7.363881811 -0.299310767 -0.416259210
