      48
<yaff.system.System object at 0x7eff68378f90>
 C  3.660910000  0.584795000  0.000000000
 C  3.611010000 -0.839705000  0.000000000
 C  2.416510000 -1.489505000  0.000000000
 C  1.187010000 -0.752805000  0.000000000
 C  2.514810000  1.316595000  0.000000000
 C  1.236810000  0.667895000  0.000000000
 C -0.049090000 -1.403205000  0.000000000
 C -1.236890000 -0.667805000  0.000000000
 C  0.049210000  1.403295000  0.000000000
 C -1.187090000  0.752795000  0.000000000
 C -2.514790000 -1.316705000  0.000000000
 C -3.660890000 -0.584805000  0.000000000
 C -3.610990000  0.839495000  0.000000000
 C -2.416490000  1.489495000  0.000000000
 H  2.368010000 -2.584305000  0.000000000
 H  2.543210000  2.412195000  0.000000000
 H -0.087590000 -2.499505000  0.000000000
 H  0.087610000  2.499595000  0.000000000
 H -2.543090000 -2.412205000  0.000000000
 H -2.368190000  2.584395000  0.000000000
 B  5.729389801 -0.200900216 -0.000009000
 C  7.264141224 -0.254721263  0.000000000
 C  8.023461004  0.927534249  0.000003000
 C  7.938885768 -1.487221984  0.000004000
 C  9.414507870  0.879951735  0.000010000
 C  9.329856707 -1.537073190  0.000010000
 C  10.068388925 -0.352947691  0.000013000
 O  4.976587547  0.974418744 -0.000003000
 O  4.896085926 -1.320572240 -0.000002000
 H  9.989716468  1.799068006  0.000012000
 H  9.839350935 -2.494182934  0.000012000
 H  7.364732413 -2.407364592  0.000001000
 H  7.515087639  1.885585579  0.000000000
 H  11.152258799 -0.390909920  0.000018000
 B -5.729372006  0.200727363 -0.000009000
 C -7.264125043  0.254502331  0.000000000
 C -8.023409327 -0.927775978  0.000003000
 C -7.938906592  1.486982793  0.000004000
 C -9.414457621 -0.880235228  0.000010000
 C -9.329879026  1.536792237  0.000010000
 C -10.068375692  0.352644564  0.000013000
 O -4.976534464 -0.974568994 -0.000003000
 O -4.896101748  1.320424406 -0.000002000
 H -9.989638623 -1.799368769  0.000012000
 H -9.839401990  2.493886683  0.000012000
 H -7.364780863  2.407142638  0.000001000
 H -7.515007198 -1.885812045 -0.000000000
 H -11.152246705  0.390574252  0.000018000
