      36
<yaff.system.System object at 0x7eff68378e90>
 C  0.698355000 -1.162038000  0.000000000
 C  1.458232000 -0.000028000  0.000000000
 C  0.698390000  1.162000000  0.000000000
 C -0.698642000  1.162030000  0.000000000
 C -1.458528000  0.000030000  0.000000000
 C -0.698679000 -1.161989000  0.000000000
 H  2.539446000 -0.000040000  0.000000000
 H -2.539742000  0.000043000  0.000000000
 N -1.111221569  2.490749234  0.064989441
 O  1.154225934  2.420466315 -0.022003196
 C  0.013845003  3.185519343  0.030920069
 C  1.250402284  5.364861497 -0.032420345
 C  1.248911441  6.762901492 -0.038546109
 H  2.203360422  4.842235643 -0.081511553
 C  0.044192124  7.460303117  0.021256462
 H  2.189226859  7.305893446 -0.091450314
 C -1.159553633  6.762781445  0.088568927
 H  0.043330401  8.547319791  0.014871726
 C -1.157332981  5.365561359  0.094243010
 H -2.101491755  7.303278624  0.135334292
 H -2.106152827  4.833265317  0.145564429
 C  0.046565513  4.646604888  0.032608119
 N  1.111221569 -2.490749234  0.064989441
 O -1.154225934 -2.420466315 -0.022003196
 C -0.013845003 -3.185519343  0.030920069
 C -1.250402284 -5.364861497 -0.032420345
 C -1.248911441 -6.762901492 -0.038546109
 H -2.203360422 -4.842235643 -0.081511553
 C -0.044192124 -7.460303117  0.021256462
 H -2.189226859 -7.305893446 -0.091450314
 C  1.159553633 -6.762781445  0.088568927
 H -0.043330401 -8.547319791  0.014871726
 C  1.157332981 -5.365561359  0.094243010
 H  2.101491755 -7.303278624  0.135334292
 H  2.106152827 -4.833265317  0.145564429
 C -0.046565513 -4.646604888  0.032608119
