      50
<yaff.system.System object at 0x7f52cdda4b90>
 C -0.000000000  3.577958000 -0.000000182
 C  1.133739000  2.852350000 -0.402520182
 C  1.135339000  1.463226000 -0.401762182
 C -0.000000000  0.741600000 -0.000000182
 C -1.135339000  1.463225000  0.401761818
 C -1.133738000  2.852349000  0.402519818
 C -0.000000000 -0.741600000 -0.000000182
 C -1.135339000 -1.463226000 -0.401762182
 C -1.133739000 -2.852350000 -0.402520182
 C -0.000000000 -3.577958000 -0.000000182
 C  1.133738000 -2.852349000  0.402519818
 C  1.135339000 -1.463225000  0.401761818
 H -2.020512000 -3.385811000 -0.727052182
 H -2.020512000  3.385812000  0.727052818
 H  2.020512000 -3.385812000  0.727052818
 H  2.020512000  3.385811000 -0.727052182
 H -2.015826000 -0.929067000 -0.740072182
 H -2.015827000  0.929068000  0.740072818
 H  2.015826000  0.929067000 -0.740072182
 H  2.015827000 -0.929068000  0.740072818
 C  0.559751615  7.192988593 -0.398646053
 C  1.156590199  8.366803546 -0.820984444
 H  2.050189437  8.351339360 -1.437160018
 C  0.562460234  9.568695924 -0.424097963
 H  0.999837575  10.515870707 -0.735269871
 C -0.598193584  9.568520377  0.374978057
 H -1.044708274  10.515559902  0.673305129
 C -1.181399508  8.366431200  0.787158395
 H -2.075510054  8.350688639  1.402597222
 C -0.574306025  7.192795611  0.379185814
 C -0.935706883  5.803403051  0.637846373
 C  0.930575751  5.803696189 -0.644240977
 N -0.001115923  5.009637194 -0.001287399
 O  1.905896859  5.537942615 -1.324521052
 O -1.907559252  5.537409820  1.322922539
 C -0.559751723 -7.192990613 -0.398645536
 C -1.156590421 -8.366805588 -0.820983705
 H -2.050189827 -8.351341433 -1.437159037
 C -0.562460349 -9.568697946 -0.424097324
 H -0.999837775 -10.515872744 -0.735269065
 C  0.598193685 -9.568522358  0.374978381
 H  1.044708457 -10.515561868  0.673305380
 C  1.181399722 -8.366433160  0.787158500
 H  2.075510434 -8.350690568  1.402597083
 C  0.574306127 -7.192797592  0.379186024
 C  0.935707056 -5.803405019  0.637846414
 C -0.930575926 -5.803698221 -0.644240430
 N  0.001115923 -5.009639194 -0.001287145
 O -1.905897219 -5.537944683 -1.324520253
 O  1.907559611 -5.537411753  1.322922303
