     101
<yaff.system.System object at 0x7eff68378e90>
 C -0.000000000  0.000000000 -0.000000000
 C -0.334711000 -3.282421000 -2.523411000
 C -3.282421000  0.334711000  2.523412000
 C  0.334711000  3.282422000 -2.523411000
 C  3.282421000 -0.334711000  2.523412000
 C -1.442915000 -2.894269000 -1.866366000
 C -2.894268000  1.442915000  1.866365000
 C  1.442915000  2.894269000 -1.866366000
 C  2.894269000 -1.442914000  1.866365000
 C -1.355721000 -1.850757000 -1.055712000
 C -1.850756000  1.355721000  1.055713000
 C  1.355722000  1.850757000 -1.055712000
 C  1.850757000 -1.355721000  1.055713000
 C -0.132197000 -1.201023000 -0.847056000
 C -1.201023000  0.132197000  0.847056000
 C  0.132198000  1.201023000 -0.847056000
 C  1.201024000 -0.132198000  0.847056000
 C  0.964755000 -1.566674000 -1.552049000
 C -1.566674000 -0.964756000  1.552050000
 C -0.964756000  1.566674000 -1.552049000
 C  1.566675000  0.964754000  1.552050000
 C  0.874751000 -2.604561000 -2.363589000
 C -2.604559000 -0.874752000  2.363589000
 C -0.874750000  2.604559000 -2.363589000
 C  2.604560000  0.874750000  2.363589000
 H -2.387983000 -3.392116000 -1.994223000
 H -3.392115000  2.387984000  1.994223000
 H  2.387983000  3.392116000 -1.994223000
 H  3.392116000 -2.387983000  1.994223000
 H -2.258597000 -1.552610000 -0.616202000
 H -1.552610000  2.258597000  0.616202000
 H  2.258598000  1.552609000 -0.616202000
 H  1.552610000 -2.258598000  0.616202000
 H  1.907010000 -1.051950000 -1.461484000
 H -1.051950000 -1.907011000  1.461484000
 H -1.907010000  1.051952000 -1.461484000
 H  1.051951000  1.907009000  1.461484000
 H  1.760751000 -2.888643000 -2.847495000
 H -2.888643000 -1.760751000  2.847496000
 H -1.760749000  2.888644000 -2.847495000
 H  2.888643000  1.760751000  2.847496000
 B -0.442036407 -4.547970770 -3.457049388
 O  0.618517209 -4.971628501 -4.159365472
 O -1.605112135 -5.202642864 -3.589778142
Si  1.037058611 -5.981250512 -5.325851236
Si -2.317288789 -6.347840201 -4.447534606
 O  0.723477635 -7.460363139 -4.807726422
 O  0.068537281 -5.705915617 -6.567961309
 H  2.449833338 -5.820002213 -5.697509167
 O -2.152019340 -5.960615600 -5.989616019
 O -1.495674008 -7.699286094 -4.214176999
 H -3.731310905 -6.498610742 -4.076029124
 B -0.268794208 -8.225808478 -4.332844291
 H -0.011646132 -9.236116816 -3.779203846
 B -1.226159278 -5.665912495 -6.912687436
 H -1.547600765 -5.091225690 -7.892333961
 B -4.505523871  0.458824539  3.510037966
 O -4.953939234 -0.611520852  4.181448522
 O -5.138847135  1.630343897  3.669416945
Si -6.170576547 -1.111938253  5.089511638
Si -6.436717265  2.282137394  4.336587870
 O -6.174870772 -0.215055714  6.412441639
 O -7.522614404 -0.787054808  4.300129169
 H -6.058272808 -2.544070889  5.400070884
 O -7.704808615  1.462178340  3.812294589
 O -6.338519095  2.033867559  5.912859367
 H -6.546766055  3.712265237  4.015916323
 B -6.228792568  1.058628925  6.825773100
 H -5.910698957  1.326873618  7.930411979
 B -8.206359417  0.221394029  3.741381253
 H -9.049660621 -0.017989172  2.950915801
 B  0.442036263  4.547971965 -3.457049140
 O -0.618516937  4.971628706 -4.159366452
 O  1.605111497  5.202645229 -3.589776443
Si -1.037057950  5.981250410 -5.325852621
Si  2.317288035  6.347843357 -4.447531948
 O -0.723479067  7.460363301 -4.807727293
 O -0.068534861  5.705916596 -6.567961562
 H -2.449832073  5.820000739 -5.697512256
 O  2.152020815  5.960618736 -5.989613595
 O  1.495671629  7.699288410 -4.214175195
 H  3.731309557  6.498615272 -4.076024762
 B  0.268791446  8.225809583 -4.332843904
 H  0.011641703  9.236117613 -3.779203670
 B  1.226162149  5.665914797 -6.912686146
 H  1.547605379  5.091228404 -7.892332341
 B  4.505523350 -0.458824420  3.510038627
 O  4.953939336  0.611521378  4.181448120
 O  5.138845555 -1.630344127  3.669419244
Si  6.170576688  1.111938812  5.089511164
Si  6.436714851 -2.282137942  4.336591480
 O  6.174869596  0.215057817  6.412442216
 O  7.522614604  0.787053298  4.300129645
 H  6.058274031  2.544071906  5.400068686
 O  7.704807117 -1.462180575  3.812297775
 O  6.338516227 -2.033866179  5.912862644
 H  6.546762566 -3.712266253  4.015921653
 B  6.228790140 -1.058626383  6.825775190
 H  5.910695836 -1.326869515  7.930414249
 B  8.206358999 -0.221396771  3.741383198
 H  9.049660739  0.017984791  2.950917822
