      56
<yaff.system.System object at 0x7ffb67b77e90>
 C -0.000000000  3.577958000 -0.000000182
 C  1.133739000  2.852350000 -0.402520182
 C  1.135339000  1.463226000 -0.401762182
 C -0.000000000  0.741600000 -0.000000182
 C -1.135339000  1.463225000  0.401761818
 C -1.133738000  2.852349000  0.402519818
 C -0.000000000 -0.741600000 -0.000000182
 C -1.135339000 -1.463226000 -0.401762182
 C -1.133739000 -2.852350000 -0.402520182
 C -0.000000000 -3.577958000 -0.000000182
 C  1.133738000 -2.852349000  0.402519818
 C  1.135339000 -1.463225000  0.401761818
 H -2.020512000 -3.385811000 -0.727052182
 H -2.020512000  3.385812000  0.727052818
 H  2.020512000 -3.385812000  0.727052818
 H  2.020512000  3.385811000 -0.727052182
 H -2.015826000 -0.929067000 -0.740072182
 H -2.015827000  0.929068000  0.740072818
 H  2.015826000  0.929067000 -0.740072182
 H  2.015827000 -0.929068000  0.740072818
 C -0.083957964  5.073623648  0.025620325
 O -1.159354333  5.604463165  0.294327386
 N  1.083476219  5.770153633 -0.258759411
 H  1.965733481  5.301752791 -0.402395963
 N  1.054161297  7.132334407 -0.306203880
 C  2.158694398  7.711879455 -0.649759916
 C  2.258257518  9.180932859 -0.749922244
 H  3.068199424  7.133956404 -0.893250278
 C  3.453615802  9.752095692 -1.195768156
 C  3.556704213  11.140341161 -1.304163600
 H  4.304242089  9.132688473 -1.465310892
 C  2.471785028  11.951179726 -0.966246062
 H  4.481440609  11.592671901 -1.653899748
 C  1.280495992  11.378527928 -0.519884979
 H  2.552993084  13.032118214 -1.051894012
 C  1.170956645  9.992233706 -0.411979080
 H  0.434822859  12.009230186 -0.257236013
 H  0.238324147  9.549809845 -0.066239671
 C  0.083957971 -5.073625647  0.025620560
 O  1.159354413 -5.604465150  0.294327357
 N -1.083476290 -5.770155646 -0.258758823
 H -1.965733590 -5.301754811 -0.402395161
 N -1.054161380 -7.132336422 -0.306203232
 C -2.158694574 -7.711881488 -0.649758939
 C -2.258257721 -9.180934897 -0.749921165
 H -3.068199667 -7.133958449 -0.893249083
 C -3.453616126 -9.752097752 -1.195766723
 C -3.556704567 -11.140343227 -1.304162069
 H -4.304242486 -9.132690547 -1.465309260
 C -2.471785290 -11.951181775 -0.966244784
 H -4.481441057 -11.592673985 -1.653897943
 C -1.280496133 -11.378529954 -0.519884054
 H -2.552993369 -13.032120267 -1.051892658
 C -1.170956756 -9.992235726 -0.411978254
 H -0.434822929 -12.009232199 -0.257235285
 H -0.238324165 -9.549811848 -0.066239121
