      50
<yaff.system.System object at 0x7eff68378f90>
 C -0.000000000  3.577958000 -0.000000182
 C  1.133739000  2.852350000 -0.402520182
 C  1.135339000  1.463226000 -0.401762182
 C -0.000000000  0.741600000 -0.000000182
 C -1.135339000  1.463225000  0.401761818
 C -1.133738000  2.852349000  0.402519818
 C -0.000000000 -0.741600000 -0.000000182
 C -1.135339000 -1.463226000 -0.401762182
 C -1.133739000 -2.852350000 -0.402520182
 C -0.000000000 -3.577958000 -0.000000182
 C  1.133738000 -2.852349000  0.402519818
 C  1.135339000 -1.463225000  0.401761818
 H -2.020512000 -3.385811000 -0.727052182
 H -2.020512000  3.385812000  0.727052818
 H  2.020512000 -3.385812000  0.727052818
 H  2.020512000  3.385811000 -0.727052182
 H -2.015826000 -0.929067000 -0.740072182
 H -2.015827000  0.929068000  0.740072818
 H  2.015826000  0.929067000 -0.740072182
 H  2.015827000 -0.929068000  0.740072818
 B  0.000687023  5.153856844  0.036850351
 O -1.097447123  5.829837174  0.403810457
 O  1.089739176  5.845547287 -0.329874837
Si -1.717733285  7.302575522  0.442402971
Si  1.595872622  7.328981434 -0.642398026
 O -0.791682142  8.181915364  1.403522754
 O -1.583079096  7.917620351 -1.027382188
 H -3.116109557  7.287093211  0.894472835
 O  0.612422931  7.946479385 -1.740940221
 O  1.405458437  8.188957330  0.691804552
 H  2.992255005  7.336377094 -1.100948098
 B  0.476796243  8.578256482  1.576436957
 H  0.812628797  9.019570944  2.618465677
 B -0.681962801  8.199755254 -1.978731151
 H -1.044786331  8.366657623 -3.089496452
 B  0.000687021 -5.153856841 -0.036850875
 O -1.097447146 -5.829837133 -0.403810987
 O  1.089739195 -5.845547320  0.329874180
Si -1.717733311 -7.302575478 -0.442403615
Si  1.595872659 -7.328981499  0.642397189
 O -0.791682222 -8.181915221 -1.403523541
 O -1.583079038 -7.917620455  1.027381474
 H -3.116109608 -7.287093120 -0.894473397
 O  0.612423031 -7.946479561  1.740939378
 O  1.405458397 -8.188957260 -0.691805465
 H  2.992255068 -7.336377206  1.100947180
 B  0.476796153 -8.578256322 -1.576437856
 H  0.812628647 -9.019570678 -2.618466641
 B -0.681962688 -8.199755455  1.978730357
 H -1.044786154 -8.366657936  3.089495661
