      78
<yaff.system.System object at 0x7eff68378e90>
 C  2.406280000 -1.304070000 -0.188810000
 C  1.203390000 -0.548970000 -0.106440000
 C -0.027230000 -1.203660000 -0.047250000
 H -0.068540000 -2.290310000 -0.082140000
 C -1.205400000 -0.462500000  0.059980000
 C -2.456090000 -1.145820000  0.109240000
 C -1.153500000  0.928000000  0.109830000
 H -2.069380000  1.508030000  0.195200000
 C  0.083700000  1.572160000  0.044410000
 C  0.148000000  2.991420000  0.079300000
 C  1.263040000  0.839400000 -0.064700000
 H  2.222880000  1.348280000 -0.114060000
 C  0.175490000  4.190400000  0.090480000
 C  0.127670000  5.611430000  0.085080000
 C -3.456150000 -1.808590000  0.128860000
 C -4.564140000 -2.707110000  0.127640000
 C  3.394430000 -1.983070000 -0.219750000
 C  4.502070000 -2.877030000 -0.213360000
 C -1.117180000  6.242170000  0.077500000
 C -1.189510000  7.632000000  0.064410000
 H -2.030180000  5.651340000  0.079790000
 C -0.016980000  8.387360000  0.058750000
 H -2.159150000  8.121460000  0.057590000
 C  1.227970000  7.755110000  0.065810000
 C  1.302670000  6.362820000  0.078900000
 H  2.139400000  8.346740000  0.060060000
 H  2.273040000  5.872360000  0.082380000
 C  4.252440000 -4.250540000 -0.198640000
 C  5.314610000 -5.149730000 -0.169460000
 H  3.229840000 -4.620520000 -0.204530000
 C  6.625220000 -4.673790000 -0.155500000
 H  5.116950000 -6.217720000 -0.154560000
 C  6.874820000 -3.299950000 -0.171320000
 C  5.811540000 -2.397060000 -0.200240000
 H  7.897730000 -2.933230000 -0.157900000
 H  6.009820000 -1.328100000 -0.207300000
 C -4.315700000 -4.082170000  0.120760000
 C -5.377930000 -4.983700000  0.105750000
 H -3.293760000 -4.454150000  0.124030000
 C -6.689040000 -4.509870000  0.098020000
 H -5.180530000 -6.052100000  0.098250000
 C -6.938440000 -3.136120000  0.105990000
 C -5.875190000 -2.231340000  0.120820000
 H -7.961900000 -2.770510000  0.098710000
 H -6.075870000 -1.163000000  0.123970000
 N -0.023956005  9.845217658  0.080596339
 B -1.321185436  10.651929245  0.252592740
 B  1.265400547  10.669118048 -0.067475171
 H -2.367676803  10.137729598  0.388888860
 N -1.345436067  12.177466756  0.275005572
 H  2.316884776  10.169255636 -0.217928269
 N  1.274694809  12.194852482 -0.046861618
 B -0.039090734  12.934666583  0.124248658
 H -2.245736032  12.693104514  0.396134455
 H  2.169839316  12.722499928 -0.153584009
 H -0.044934563  14.115862480  0.140430483
 N  7.822645574 -5.505679069 -0.152770717
 B  9.230374032 -4.908006221  0.002980037
 B  7.754269726 -7.033759314 -0.305979240
 H  9.412536236 -3.756584049  0.141421368
 N  10.493121050 -5.764638959  0.005314288
 H  6.739130828 -7.606652061 -0.445279523
 N  8.997883281 -7.917954841 -0.305300086
 B  10.360361410 -7.268295796 -0.149631982
 H  11.433930711 -5.324438707  0.115747299
 H  8.914063612 -8.953340585 -0.415007921
 H  11.330638186 -7.942152049 -0.148940009
 N -7.896234102 -5.327122676  0.123619646
 B -7.844027513 -6.853476091  0.298806025
 B -9.298647547 -4.714924798 -0.023443709
 H -6.834106790 -7.436331320  0.434680991
 N -9.097829794 -7.722751870  0.325161005
 H -9.468940169 -3.563482986 -0.176086518
 N -10.571289002 -5.556446634  0.001083621
 B -10.454292998 -7.059318016  0.175226176
 H -9.024847064 -8.757441507  0.448390079
 H -11.508086003 -5.106744938 -0.105052840
 H -11.432290287 -7.721640843  0.194449203
