      45
<yaff.system.System object at 0x7eff6837e1d0>
 C  1.214670000 -0.706990000 -0.100210000
 C -0.003630000 -1.377070000 -0.034780000
 O -0.065580000 -2.740060000 -0.060670000
 C -1.202870000 -0.677230000  0.059480000
 C -1.171390000  0.714080000  0.087980000
 O -2.318460000  1.447630000  0.179540000
 C  0.034640000  1.405600000  0.023800000
 C  1.221460000  0.684370000 -0.070160000
 O  2.430470000  1.313820000 -0.136030000
 H -3.072450000  0.835100000  0.215630000
 H  2.278920000  2.273550000 -0.105640000
 H  0.839910000 -3.087250000 -0.127960000
 N  2.486213287 -1.419594055 -0.135537159
 B  3.833590282 -0.689862382 -0.012097056
 B  2.561069840 -2.946307290 -0.299001335
 H  3.907791028  0.472998367  0.130630722
 N  5.172498139 -1.420796389 -0.049731532
 H  1.602377095 -3.613622794 -0.416116197
 N  3.883547177 -3.706510680 -0.338005981
 B  5.180896488 -2.929396635 -0.213047540
 H  6.069222629 -0.892563267  0.039428376
 H  3.896806704 -4.744552074 -0.453675483
 H  6.211168433 -3.506588870 -0.243190433
 N -2.474966780 -1.388094850  0.107603023
 B -2.551108812 -2.911121249  0.301931409
 B -3.821635984 -0.660238502 -0.033409516
 H -1.593102888 -3.576377531  0.435276146
 N -3.874066675 -3.669828322  0.351943373
 H -3.894846723  0.499621275 -0.199189902
 N -5.161018137 -1.389708855  0.014604206
 B -5.170620647 -2.894883189  0.206942717
 H -3.888179215 -4.705417644  0.487774602
 H -6.057191706 -0.862995059 -0.088014965
 H -6.201234778 -3.471034220  0.244416058
 N  0.068944255  2.862944264  0.052882491
 B -1.204680314  3.705152563  0.231029008
 B  1.380867117  3.650778251 -0.093245384
 H -2.265091639  3.220081462  0.366513099
 N -1.185728160  5.230634505  0.261042083
 H  2.417558951  3.122135232 -0.247920050
 N  1.433353536  5.175517280 -0.065086302
 B  0.141285556  5.951328380  0.111870069
 H -2.070894691  5.770917049  0.386220014
 H  2.342904160  5.678163295 -0.170679052
 H  0.168885884  7.132121328  0.133915160
