      32
<yaff.system.System object at 0x7f192d1c5cd0>
 F  1.342850000 -2.363239000 -0.181050000
 C  0.684160000 -1.200169000 -0.092040000
 C -0.709070000 -1.188689000 -0.034700000
 F -1.391880000 -2.340709000 -0.068500000
 C -1.404610000  0.011571000  0.057810000
 C -0.684160000  1.200171000  0.092040000
 F -1.342850000  2.363241000  0.181050000
 C  0.709070000  1.188691000  0.034700000
 F  1.391880000  2.340711000  0.068500000
 C  1.404610000 -0.011579000 -0.057810000
 N -2.860637948  0.016842220  0.134162522
 B -3.653802278 -1.189211226  0.662836309
 B -3.696057362  1.228592678 -0.309585800
 H -3.129558567 -2.167898800  1.044230138
 N -5.177353872 -1.200192833  0.746652003
 H -3.207474461  2.204016139 -0.743121810
 N -5.220044975  1.249570603 -0.236111009
 B -5.946304273  0.026994573  0.293503349
 H -5.683555400 -2.036957542  1.113638877
 H -5.755863300  2.089634730 -0.549601311
 H -7.126072238  0.030690365  0.353948704
 N  2.860637948 -0.016842220 -0.134162522
 B  3.653802278  1.189211226 -0.662836309
 B  3.696057362 -1.228592678  0.309585800
 H  3.129558567  2.167898800 -1.044230138
 N  5.177353872  1.200192833 -0.746652003
 H  3.207474461 -2.204016139  0.743121810
 N  5.220044975 -1.249570603  0.236111009
 B  5.946304273 -0.026994573 -0.293503349
 H  5.683555400  2.036957542 -1.113638877
 H  5.755863300 -2.089634730  0.549601311
 H  7.126072238 -0.030690365 -0.353948704
