      73
<yaff.system.System object at 0x7eff68378e90>
 C -0.000000000  0.000000000 -0.000000000
 C -0.334711000 -3.282421000 -2.523411000
 C -3.282421000  0.334711000  2.523412000
 C  0.334711000  3.282422000 -2.523411000
 C  3.282421000 -0.334711000  2.523412000
 C -1.442915000 -2.894269000 -1.866366000
 C -2.894268000  1.442915000  1.866365000
 C  1.442915000  2.894269000 -1.866366000
 C  2.894269000 -1.442914000  1.866365000
 C -1.355721000 -1.850757000 -1.055712000
 C -1.850756000  1.355721000  1.055713000
 C  1.355722000  1.850757000 -1.055712000
 C  1.850757000 -1.355721000  1.055713000
 C -0.132197000 -1.201023000 -0.847056000
 C -1.201023000  0.132197000  0.847056000
 C  0.132198000  1.201023000 -0.847056000
 C  1.201024000 -0.132198000  0.847056000
 C  0.964755000 -1.566674000 -1.552049000
 C -1.566674000 -0.964756000  1.552050000
 C -0.964756000  1.566674000 -1.552049000
 C  1.566675000  0.964754000  1.552050000
 C  0.874751000 -2.604561000 -2.363589000
 C -2.604559000 -0.874752000  2.363589000
 C -0.874750000  2.604559000 -2.363589000
 C  2.604560000  0.874750000  2.363589000
 H -2.387983000 -3.392116000 -1.994223000
 H -3.392115000  2.387984000  1.994223000
 H  2.387983000  3.392116000 -1.994223000
 H  3.392116000 -2.387983000  1.994223000
 H -2.258597000 -1.552610000 -0.616202000
 H -1.552610000  2.258597000  0.616202000
 H  2.258598000  1.552609000 -0.616202000
 H  1.552610000 -2.258598000  0.616202000
 H  1.907010000 -1.051950000 -1.461484000
 H -1.051950000 -1.907011000  1.461484000
 H -1.907010000  1.051952000 -1.461484000
 H  1.051951000  1.907009000  1.461484000
 H  1.760751000 -2.888643000 -2.847495000
 H -2.888643000 -1.760751000  2.847496000
 H -1.760749000  2.888644000 -2.847495000
 H  2.888643000  1.760751000  2.847496000
 C -0.453960354 -4.451835705 -3.422415232
 N  0.640420532 -4.854590133 -4.091782273
 C  0.469438657 -5.909377011 -4.882570951
 N -1.651034760 -5.055353904 -3.526609170
 C -1.694095482 -6.098893557 -4.348917133
 N -0.671198735 -6.581424625 -5.059542795
 H -2.649619389 -6.605661552 -4.452137346
 H  1.337908428 -6.256310804 -5.435646433
 C -4.451835767  0.453960396  3.422416145
 N -4.854589117 -0.640420015  4.091784613
 C -5.909376112 -0.469438128  4.882573132
 N -5.055355099  1.651034361  3.526608581
 C -6.098894746  1.694095147  4.348916548
 N -6.581424801  0.671198852  5.059543550
 H -6.605663644  2.649618704  4.452135564
 H -6.256309048 -1.337907518  5.435649748
 C  0.453960263  4.451836908 -3.422414979
 N -0.640420224  4.854590310 -4.091783290
 C -0.469438455  5.909377432 -4.882571664
 N  1.651034192  5.055356309 -3.526607430
 C  1.694094858  6.098896083 -4.348915243
 N  0.671198479  6.581426199 -5.059542082
 H  2.649618384  6.605665039 -4.452134267
 H -1.337907910  6.256310413 -5.435648151
 C  4.451835287 -0.453960333  3.422416778
 N  4.854589280  0.640420519  4.091784135
 C  5.909375798  0.469438665  4.882573299
 N  5.055353561 -1.651034688  3.526610869
 C  6.098892825 -1.694095394  4.348919328
 N  6.581423446 -0.671198677  5.059545336
 H  6.605660871 -2.649619259  4.452139675
 H  6.256309235  1.337908410  5.435649046
