      72
<yaff.system.System object at 0x7f52bc889d90>
 C -0.603476000  1.312019000 -0.000004000
 C -0.834504000 -1.178634000 -0.000004000
 C  1.437979000 -0.133384000 -0.000004000
 C -1.439925000  0.110456000 -0.000004000
 C  0.815621000  1.191783000 -0.000004000
 C  0.624305000 -1.302240000 -0.000004000
 C -0.387127000  3.698946000 -0.000004000
 C -3.009817000 -2.184735000 -0.000004000
 C  3.396945000 -1.514211000 -0.000004000
 C -3.603278000 -0.921119000 -0.000003000
 C  1.003926000  3.581089000 -0.000003000
 C  2.599351000 -2.659971000 -0.000003000
 H -2.270854000  2.738354000 -0.000003000
 H -1.236057000 -3.335794000 -0.000003000
 H  3.506911000  0.597440000 -0.000003000
 H -3.356441000  1.178916000 -0.000003000
 H  2.699192000  2.317306000 -0.000003000
 H  0.657249000 -3.496222000 -0.000003000
 C -1.200386000  2.600297000 -0.000003000
 C -1.651731000 -2.339713000 -0.000003000
 C  2.852117000 -0.260584000 -0.000003000
 C -2.855306000  0.222978000 -0.000003000
 C  1.620758000  2.361278000 -0.000003000
 C  1.234548000 -2.584256000 -0.000003000
 C -0.702762884  5.119736328  0.002452522
 C  1.553436810  4.929166533  0.004694686
 N  0.492162545  5.815538646  0.007821995
 O  2.760646480  5.093973635  0.016553678
 O -1.865139630  5.484813698 -0.010873866
 C  0.612652566  7.242102539  0.018109317
 C  1.826511259  7.881888587 -0.285500427
 H  2.719427710  7.324146883 -0.550788722
 C  1.946930114  9.277995377 -0.273387072
 H  2.901844532  9.738108696 -0.515876054
 C  0.853293211  10.071955237  0.045306300
 H  0.945538158  11.154460432  0.056403362
 C -0.359428194  9.468154939  0.349730245
 H -1.223222399  10.078152689  0.602945519
 C -0.476567562  8.071795783  0.334668267
 H -1.451253272  7.667899400  0.590794534
 C -4.082427753 -3.168482222  0.002452522
 C -5.045492786 -1.119272705  0.004694686
 N -5.282474114 -2.481549636  0.007821995
 O -5.791826389 -0.156203277  0.016553678
 O -3.817403644 -4.357668250 -0.010873866
 C -6.578158665 -3.090486357  0.018109317
 C -7.739160221 -2.359148882 -0.285500427
 H -7.702601743 -1.306989637 -0.550788722
 C -9.008432589 -2.952918638 -0.273387072
 H -9.884360632 -2.355996636 -0.515876054
 C -9.149201270 -4.297016147  0.045306300
 H -10.132799961 -4.758383942  0.056403362
 C -8.019932904 -5.045361631  0.349730245
 H -8.116307567 -6.098428394  0.602945519
 C -6.752081728 -4.448625575  0.334668267
 H -5.914953258 -5.090778551  0.590794534
 C  4.785198406 -1.951255861  0.002452522
 C  3.492059816 -3.809896894  0.004694686
 N  4.790317833 -3.333992798  0.007821995
 O  3.031181839 -4.937774574  0.016553678
 O  5.682553260 -1.127146976 -0.010873866
 C  5.965513192 -4.151622454  0.018109317
 C  5.912654477 -5.522747930 -0.285500427
 H  4.983177645 -6.017165178 -0.550788722
 C  7.061508798 -6.325087396 -0.273387072
 H  6.982521151 -7.382124181 -0.515876054
 C  8.295916794 -5.774950291  0.045306300
 H  9.187271165 -6.396089576  0.056403362
 C  8.379371434 -4.422802618  0.349730245
 H  9.339542193 -3.979734006  0.602945519
 C  7.228658813 -3.623177087  0.334668267
 H  7.366217399 -2.577126344  0.590794534
