      46
<yaff.system.System object at 0x7f192d1c5cd0>
 C -0.000013000 -1.415145000  0.000000000
 C  0.000013000  1.415145000  0.000000000
 C -1.206999000 -0.694755000  0.000000000
 C  1.206999000  0.694755000  0.000000000
 C -1.206984000  0.694770000  0.000000000
 C  1.206984000 -0.694770000  0.000000000
 H  2.148535000 -1.233078000  0.000000000
 H -2.148535000  1.233078000  0.000000000
 H  2.148565000  1.233036000  0.000000000
 H -2.148565000 -1.233036000  0.000000000
 C  0.078459723 -2.911050020 -0.028831998
 O  1.093981359 -3.444999848 -0.469382583
 N -1.022699980 -3.604202092  0.456879786
 H -1.809008455 -3.133287791  0.879215421
 N -1.031717795 -4.966435136  0.403152547
 C -2.118686404 -5.542747617  0.803477101
 C -2.262318065 -7.011469688  0.786487865
 H -2.987110263 -4.962186508  1.163019591
 C -3.483585782 -7.579097623  1.160908318
 C -3.634823156 -8.966998228  1.139427095
 H -4.321040717 -6.957202688  1.463892794
 C -2.570325686 -9.781006720  0.748361386
 H -4.582567049 -9.416591912  1.425264297
 C -1.351969653 -9.211878810  0.376824223
 H -2.689589310 -10.861673463  0.731217439
 C -1.195916298 -7.825947071  0.393993661
 H -0.522668616 -9.845051597  0.071398493
 H -0.244363965 -7.386280118  0.100192516
 C -0.078459723  2.911050020  0.028831998
 O -1.093981359  3.444999848  0.469382583
 N  1.022699980  3.604202092 -0.456879786
 H  1.809008455  3.133287791 -0.879215421
 N  1.031717795  4.966435136 -0.403152547
 C  2.118686404  5.542747617 -0.803477101
 C  2.262318065  7.011469688 -0.786487865
 H  2.987110263  4.962186508 -1.163019591
 C  3.483585782  7.579097623 -1.160908318
 C  3.634823156  8.966998228 -1.139427095
 H  4.321040717  6.957202688 -1.463892794
 C  2.570325686  9.781006720 -0.748361386
 H  4.582567049  9.416591912 -1.425264297
 C  1.351969653  9.211878810 -0.376824223
 H  2.689589310  10.861673463 -0.731217439
 C  1.195916298  7.825947071 -0.393993661
 H  0.522668616  9.845051597 -0.071398493
 H  0.244363965  7.386280118 -0.100192516
