      54
<yaff.system.System object at 0x7f52bc892a50>
 C  0.000149000  3.538221000  0.000000000
 C -1.208314000  2.825814000  0.000000000
 C -1.234523000  1.426499000  0.000000000
 C  0.000173000  0.711855000  0.000000000
 C  1.234878000  1.426489000  0.000000000
 C  1.208633000  2.825798000  0.000000000
 H -2.147734000  3.368891000  0.000000000
 H  2.148055000  3.368886000  0.000000000
 C  0.000167000 -0.711882000  0.000000000
 C -1.234536000 -1.426518000  0.000000000
 C -1.208310000 -2.825825000  0.000000000
 C  0.000175000 -3.538236000  0.000000000
 C  1.208656000 -2.825835000  0.000000000
 C  1.234871000 -1.426526000  0.000000000
 H -2.147732000 -3.368910000  0.000000000
 H  2.148078000 -3.368915000  0.000000000
 C  2.463326000  0.679235000  0.000000000
 C  2.463326000 -0.679271000  0.000000000
 H  3.399127000  1.228117000  0.000000000
 H  3.399123000 -1.228155000  0.000000000
 C -2.462978000  0.679245000  0.000000000
 C -2.462987000 -0.679261000  0.000000000
 H -3.398774000  1.228133000  0.000000000
 H -3.398787000 -1.228142000  0.000000000
 C  0.660975191  7.153223788 -0.189077173
 C  1.364564858  8.327009134 -0.388117613
 H  2.412529038  8.311500848 -0.670892521
 C  0.672119367  9.528930653 -0.212167373
 H  1.188287985  10.476083716 -0.359605487
 C -0.688617196  9.528812369  0.153941616
 H -1.209034981  10.475873795  0.286222593
 C -1.375967627  8.326752114  0.347953736
 H -2.424169360  8.311053664  0.629863529
 C -0.667601735  7.153086715  0.165877070
 C -1.094647076  5.763712125  0.289157540
 C  1.092428358  5.763913226 -0.296897012
 N -0.000413318  4.969900219 -0.001585681
 O  2.238807614  5.498111411 -0.612841946
 O -2.239378651  5.497767065  0.610780963
 C -0.660975191 -7.153223788  0.189077173
 C -1.364564858 -8.327009134  0.388117613
 H -2.412529038 -8.311500848  0.670892521
 C -0.672119367 -9.528930653  0.212167373
 H -1.188287985 -10.476083716  0.359605487
 C  0.688617196 -9.528812369 -0.153941616
 H  1.209034981 -10.475873795 -0.286222593
 C  1.375967627 -8.326752114 -0.347953736
 H  2.424169360 -8.311053664 -0.629863529
 C  0.667601735 -7.153086715 -0.165877070
 C  1.094647076 -5.763712125 -0.289157540
 C -1.092428358 -5.763913226  0.296897012
 N  0.000413318 -4.969900219  0.001585681
 O -2.238807614 -5.498111411  0.612841946
 O  2.239378651 -5.497767065 -0.610780963
