      93
<yaff.system.System object at 0x7f62ed4fea90>
 C  4.027462051 -3.893913718  0.310066179
 C  2.672148051 -4.262318718  0.319743179
 C  1.678672051 -3.300991718  0.229140179
 C  2.003629051 -1.937063718  0.160580179
 C  3.355470051 -1.566913718  0.187692179
 C  4.354395051 -2.527048718  0.261396179
 C  0.941359051 -0.909939718  0.077892179
 N  1.312939051  0.376982282  0.037767179
 C  0.318010051  1.271410282 -0.038992821
 N -0.981642949  0.947974282 -0.075637821
 C -1.260558949 -0.362144718 -0.031325821
 N -0.332144949 -1.325265718  0.045418179
 C  0.676958051  2.706621282 -0.083768821
 C -0.317350949  3.691753282 -0.190296821
 C  0.018704051  5.034651282 -0.245812821
 C  1.360665051  5.440586282 -0.161808821
 C  2.359252051  4.454275282 -0.075031821
 C  2.018771051  3.109724282 -0.036659821
 C -2.682392949 -0.770638718 -0.066681821
 C -3.700649949  0.190456282 -0.135975821
 C -5.035099949 -0.188277718 -0.165449821
 C -5.391426949 -1.548090718 -0.125807821
 C -4.369830949 -2.511469718 -0.093439821
 C -3.039347949 -2.128166718 -0.047251821
 H  0.636350051 -3.590416718  0.220005179
 H  2.423007051 -5.314639718  0.386235179
 H  5.392662051 -2.220384718  0.316972179
 H  3.609547051 -0.515584718  0.158735179
 H -1.353435949  3.384405282 -0.238761821
 H -0.746394949  5.795773282 -0.341783821
 H  3.403496051  4.745260282 -0.073396821
 H  2.789534051  2.352613282  0.021499179
 H -3.429036949  1.237058282 -0.175087821
 H -5.807122949  0.567416282 -0.254919821
 H -4.647001949 -3.558870718 -0.092107821
 H -2.256291949 -2.873402718 -0.005591821
 C  5.036552204 -5.000446132  0.370140232
 O  4.661220669 -6.169077465  0.438551869
 C  6.489072760 -4.665852179  0.331370223
 C  7.451907784 -5.594078139  0.427139284
 H  6.793543499 -3.637695410  0.209350124
 N  7.317593666 -6.949503642  0.562778127
 H  8.480100643 -5.249350045  0.385703748
 C  8.308412382 -7.940484617  0.659234655
 H  6.345997830 -7.273176243  0.572552556
 C  9.681493439 -7.663954598  0.700489156
 C  7.914797304 -9.286886031  0.707444137
 C  10.627413664 -8.691802748  0.788182238
 H  10.048874402 -6.644213362  0.670740850
 C  10.214726896 -10.019341410  0.834713917
 H  11.686318588 -8.449367385  0.820240839
 C  8.856498365 -10.318072450  0.794334373
 H  6.859090628 -9.546128267  0.674676403
 H  10.949168988 -10.817169904  0.902231148
 H  8.525651681 -11.352512880  0.829285634
 C  1.816031650  6.867309015 -0.220026654
 O  3.011031503  7.134154877 -0.110382946
 C  0.808197370  7.946791482 -0.425598680
 C  1.129952093  9.248330988 -0.442781305
 H -0.226911379  7.683639142 -0.580512856
 N  2.363571319  9.822601215 -0.294410882
 H  0.323832853  9.957231722 -0.602049754
 C  2.725801976  11.179607214 -0.314223789
 H  3.125171006  9.148727854 -0.173090752
 C  1.803158287  12.227730378 -0.431223055
 C  4.085068737  11.517373412 -0.222781890
 C  2.220090937  13.563599770 -0.454613226
 H  0.738956416  12.032214358 -0.501748133
 C  3.572559036  13.875369549 -0.362612610
 H  1.483257025  14.357367796 -0.544559902
 C  4.507031277  12.851195697 -0.246487520
 H  4.834922890  10.734672194 -0.133931450
 H  3.896115754  14.912410730 -0.381339782
 H  5.565568221  13.086017260 -0.175027788
 C -6.853916352 -1.870632201 -0.183924519
 O -7.682375217 -0.962392022 -0.180959471
 C -7.283951832 -3.296344495 -0.259330963
 C -8.572274451 -3.667803857 -0.267649724
 H -6.537305390 -4.073020206 -0.322510136
 N -9.687345812 -2.875333106 -0.220506952
 H -8.782360887 -4.730824840 -0.327524580
 C -11.043851319 -3.239736115 -0.233627077
 H -9.484664477 -1.871826544 -0.193069432
 C -11.490984340 -4.567735101 -0.230003401
 C -12.015170048 -2.226932886 -0.262320282
 C -12.856310680 -4.874822107 -0.252553785
 H -10.790306767 -5.394850864 -0.204383556
 C -13.801716406 -3.854899125 -0.280830838
 H -13.175947122 -5.913518077 -0.247501666
 C -13.381217946 -2.528696821 -0.285727527
 H -11.711586190 -1.182622603 -0.269371574
 H -14.861558298 -4.093442628 -0.298892703
 H -14.113177648 -1.725916523 -0.308682016
