      60
<yaff.system.System object at 0x7eff68378e90>
 C  4.027462051 -3.893913718  0.310066179
 C  2.672148051 -4.262318718  0.319743179
 C  1.678672051 -3.300991718  0.229140179
 C  2.003629051 -1.937063718  0.160580179
 C  3.355470051 -1.566913718  0.187692179
 C  4.354395051 -2.527048718  0.261396179
 C  0.941359051 -0.909939718  0.077892179
 N  1.312939051  0.376982282  0.037767179
 C  0.318010051  1.271410282 -0.038992821
 N -0.981642949  0.947974282 -0.075637821
 C -1.260558949 -0.362144718 -0.031325821
 N -0.332144949 -1.325265718  0.045418179
 C  0.676958051  2.706621282 -0.083768821
 C -0.317350949  3.691753282 -0.190296821
 C  0.018704051  5.034651282 -0.245812821
 C  1.360665051  5.440586282 -0.161808821
 C  2.359252051  4.454275282 -0.075031821
 C  2.018771051  3.109724282 -0.036659821
 C -2.682392949 -0.770638718 -0.066681821
 C -3.700649949  0.190456282 -0.135975821
 C -5.035099949 -0.188277718 -0.165449821
 C -5.391426949 -1.548090718 -0.125807821
 C -4.369830949 -2.511469718 -0.093439821
 C -3.039347949 -2.128166718 -0.047251821
 H  0.636350051 -3.590416718  0.220005179
 H  2.423007051 -5.314639718  0.386235179
 H  5.392662051 -2.220384718  0.316972179
 H  3.609547051 -0.515584718  0.158735179
 H -1.353435949  3.384405282 -0.238761821
 H -0.746394949  5.795773282 -0.341783821
 H  3.403496051  4.745260282 -0.073396821
 H  2.789534051  2.352613282  0.021499179
 H -3.429036949  1.237058282 -0.175087821
 H -5.807122949  0.567416282 -0.254919821
 H -4.647001949 -3.558870718 -0.092107821
 H -2.256291949 -2.873402718 -0.005591821
 C  5.089737197 -4.920969162  0.391848807
 N  6.370299676 -4.511823525  0.418163671
 C  7.277357258 -5.480816156  0.492033265
 N  4.723189831 -6.213942323  0.435907416
 C  5.722158640 -7.087881672  0.508783703
 N  7.024155454 -6.791363062  0.540781025
 H  5.454367793 -8.140221695  0.545698299
 H  8.320636042 -5.178251550  0.514822018
 C  1.719564406  6.875622694 -0.204488059
 N  0.728694457  7.776439879 -0.325475794
 C  1.114663961  9.048101922 -0.358034707
 N  3.019343429  7.209614865 -0.120217971
 C  3.277428619  8.512870127 -0.164233642
 N  2.373221390  9.488900539 -0.282202869
 H  4.320109602  8.811097468 -0.098120346
 H  0.333987584  9.797487120 -0.455304987
 C -6.813446045 -1.956404787 -0.158990363
 N -7.098810510 -3.270367158 -0.157287626
 C -8.392857398 -3.573120030 -0.187951008
 N -7.751732862 -0.993710605 -0.189247360
 C -9.009282829 -1.423540518 -0.218125506
 N -9.403059666 -2.699895071 -0.219419064
 H -9.788215770 -0.666479769 -0.242957845
 H -8.652033572 -4.628261076 -0.187342740
