      82
<yaff.system.System object at 0x7f52bc892e50>
 C -0.000001000 -0.000001000  1.760854000
 C -0.000001000 -0.000001000 -1.760853000
 H  0.583501000 -0.548807000 -2.343561000
 H -0.583501000  0.548807000 -2.343561000
 C  0.925717000 -0.871783000  0.897399000
 C -0.925717000  0.871783000  0.897399000
 C -0.871783000 -0.925717000 -0.897399000
 C  0.871783000  0.925717000 -0.897399000
 C  1.773370000  0.051568000 -0.002829000
 C -1.773370000 -0.051569000 -0.002829000
 C  0.051568000 -1.773370000  0.002829000
 C -0.051569000  1.773370000  0.002829000
 H  2.340312000  0.633966000  0.562907000
 H -2.340313000 -0.633966000  0.562907000
 H  0.633966000 -2.340313000 -0.562907000
 H -0.633966000  2.340312000 -0.562907000
 H  2.368699000 -0.498341000 -0.571393000
 H -2.368700000  0.498341000 -0.571393000
 H -0.498341000 -2.368700000  0.571393000
 H  0.498341000  2.368699000  0.571393000
 H -0.548807000 -0.583501000  2.343561000
 H  0.548807000  0.583501000  2.343561000
 C  3.606122195 -2.484978980  2.834849208
 C  4.868921691 -2.705687806  3.353552016
 H  5.700826482 -2.056198492  3.099526178
 C  5.027946447 -3.794576782  4.216156508
 H  6.005529197 -4.003675264  4.647290773
 C  3.935701857 -4.625805514  4.535061431
 H  4.081233842 -5.468707904  5.208555510
 C  2.669116698 -4.378866330  3.996709087
 H  1.818456410 -5.010355982  4.233445946
 C  2.539667190 -3.294761719  3.147954331
 C  1.370601742 -2.783375158  2.441061613
 C  3.126154872 -1.449072853  1.926834531
 N  1.776761832 -1.672849863  1.724274317
 O  3.888155418 -0.594473352  1.510094721
 O  0.293690952 -3.343482554  2.546520782
 C -3.606122115  2.484980497  2.834848055
 C -4.868921761  2.705690170  3.353550139
 H -5.700826916  2.056201615  3.099523556
 C -5.027946181  3.794578984  4.216154897
 H -6.005529035  4.003678113  4.647288613
 C -3.935701120  4.625806726  4.535060790
 H -4.081232849  5.468709007  5.208555061
 C -2.669115820  4.378866698  3.996709164
 H -1.818455172  5.010355582  4.233446774
 C -2.539666653  3.294762268  3.147954125
 C -1.370601171  2.783374999  2.441061975
 C -3.126155056  1.449074287  1.926833333
 N -1.776761707  1.672850273  1.724274048
 O -3.888156029  0.594475543  1.510092754
 O -0.293689995  3.343481488  2.546522013
 C -3.093037135 -2.531623773 -3.352552781
 C -3.961150866 -2.650395404 -4.422459042
 H -4.275380379 -1.779314738 -4.988947669
 C -4.413714182 -3.933869800 -4.743293116
 H -5.097824708 -4.072059751 -5.578854778
 C -3.993644855 -5.052791308 -3.996837345
 H -4.358303517 -6.043426706 -4.263152648
 C -3.114265281 -4.903790253 -2.920022401
 H -2.781861493 -5.756423981 -2.336096127
 C -2.681209830 -3.623873237 -2.625573718
 C -1.776791802 -3.149332911 -1.584052206
 C -2.453557994 -1.351131245 -2.782057724
 N -1.672357745 -1.777631386 -1.723855395
 O -2.653493970 -0.249664440 -3.263154064
 O -1.283618234 -3.933672649 -0.792743298
 C  3.093037135  2.531623773 -3.352552781
 C  3.961150866  2.650395404 -4.422459042
 H  4.275380379  1.779314738 -4.988947669
 C  4.413714182  3.933869800 -4.743293116
 H  5.097824708  4.072059751 -5.578854778
 C  3.993644855  5.052791308 -3.996837345
 H  4.358303517  6.043426706 -4.263152648
 C  3.114265281  4.903790253 -2.920022401
 H  2.781861493  5.756423981 -2.336096127
 C  2.681209830  3.623873237 -2.625573718
 C  1.776791802  3.149332911 -1.584052206
 C  2.453557994  1.351131245 -2.782057724
 N  1.672357745  1.777631386 -1.723855395
 O  2.653493970  0.249664440 -3.263154064
 O  1.283618234  3.933672649 -0.792743298
