      90
<yaff.system.System object at 0x7f52cdd92fd0>
 C  2.406280000 -1.304070000 -0.188810000
 C  1.203390000 -0.548970000 -0.106440000
 C -0.027230000 -1.203660000 -0.047250000
 H -0.068540000 -2.290310000 -0.082140000
 C -1.205400000 -0.462500000  0.059980000
 C -2.456090000 -1.145820000  0.109240000
 C -1.153500000  0.928000000  0.109830000
 H -2.069380000  1.508030000  0.195200000
 C  0.083700000  1.572160000  0.044410000
 C  0.148000000  2.991420000  0.079300000
 C  1.263040000  0.839400000 -0.064700000
 H  2.222880000  1.348280000 -0.114060000
 C  0.175490000  4.190400000  0.090480000
 C  0.127670000  5.611430000  0.085080000
 C -3.456150000 -1.808590000  0.128860000
 C -4.564140000 -2.707110000  0.127640000
 C  3.394430000 -1.983070000 -0.219750000
 C  4.502070000 -2.877030000 -0.213360000
 C -1.117180000  6.242170000  0.077500000
 C -1.189510000  7.632000000  0.064410000
 H -2.030180000  5.651340000  0.079790000
 C -0.016980000  8.387360000  0.058750000
 H -2.159150000  8.121460000  0.057590000
 C  1.227970000  7.755110000  0.065810000
 C  1.302670000  6.362820000  0.078900000
 H  2.139400000  8.346740000  0.060060000
 H  2.273040000  5.872360000  0.082380000
 C  4.252440000 -4.250540000 -0.198640000
 C  5.314610000 -5.149730000 -0.169460000
 H  3.229840000 -4.620520000 -0.204530000
 C  6.625220000 -4.673790000 -0.155500000
 H  5.116950000 -6.217720000 -0.154560000
 C  6.874820000 -3.299950000 -0.171320000
 C  5.811540000 -2.397060000 -0.200240000
 H  7.897730000 -2.933230000 -0.157900000
 H  6.009820000 -1.328100000 -0.207300000
 C -4.315700000 -4.082170000  0.120760000
 C -5.377930000 -4.983700000  0.105750000
 H -3.293760000 -4.454150000  0.124030000
 C -6.689040000 -4.509870000  0.098020000
 H -5.180530000 -6.052100000  0.098250000
 C -6.938440000 -3.136120000  0.105990000
 C -5.875190000 -2.231340000  0.120820000
 H -7.961900000 -2.770510000  0.098710000
 H -6.075870000 -1.163000000  0.123970000
 C  0.640361263  12.003600169 -0.118439418
 C  1.342657648  13.178712506 -0.314190126
 H  2.390303523  13.165144332 -0.598241358
 C  0.649334155  14.379382435 -0.133223721
 H  1.164474677  15.327513406 -0.277947135
 C -0.710972066  14.376748848  0.234471601
 H -1.232089154  15.322869186  0.370675709
 C -1.397009601  13.173394113  0.425076050
 H -2.444865876  13.155758567  0.708153176
 C -0.687798401  12.001016000  0.238063608
 C -1.113444900  10.610831761  0.356976973
 C  1.072941636  10.615067299 -0.231627226
 N -0.018836359  9.819034899  0.062178143
 O  2.219189542  10.351412574 -0.549839625
 O -2.257558540  10.342724703  0.679003937
 C  9.204824516 -7.288594600 -0.377139413
 C  9.760508003 -8.537738382 -0.585185636
 H  9.143796611 -9.386329730 -0.864454071
 C  11.143844402 -8.660724559 -0.422983935
 H  11.621955410 -9.626484376 -0.577854215
 C  11.928019034 -7.547240554 -0.061233581
 H  13.003507912 -7.664768344  0.060294865
 C  11.339813187 -6.295159725  0.142107637
 H  11.931095049 -5.428466349  0.420809622
 C  9.970424055 -6.201407050 -0.026440458
 C  9.078777315 -5.054845397  0.108800135
 C  7.818426510 -6.844531608 -0.470249126
 N  7.798032559 -5.494755378 -0.170822034
 O  6.939944563 -7.630024561 -0.779970764
 O  9.520883077 -3.965626888  0.429306478
 C -10.059426269 -5.977113825 -0.070439331
 C -11.426903406 -6.048217672 -0.263773440
 H -11.999269017 -5.170942907 -0.548760581
 C -12.038123639 -7.292150609 -0.079124426
 H -13.112772390 -7.392277396 -0.221853726
 C -11.278119065 -8.419969857  0.289734069
 H -11.773804523 -9.379245500  0.428818359
 C -9.896238522 -8.319649122  0.477835342
 H -9.297834954 -9.179731478  0.761768354
 C -9.317375506 -7.078278851  0.287199356
 C -7.925350704 -6.657795053  0.402905359
 C -9.146885502 -4.845075431 -0.187568380
 N -7.877363136 -5.308334646  0.105129808
 O -9.566434933 -3.746751765 -0.507444304
 O -7.065222544 -7.458336752  0.725227119
