      70
<yaff.system.System object at 0x7eff68378f10>
 N  0.000000000  0.000000000  0.000000000
 C  1.486664194  0.115830323 -0.171934194
 C -0.789065806  1.237760323  0.199745806
 C -0.613895806 -1.236089677 -0.038794194
 C -0.462675806  2.500160323 -0.322134194
 C  2.176224194 -0.918259677 -0.846584194
 C -1.765025806 -1.441179677 -0.822204194
 C -2.007925806  1.140170323  0.910585806
 C -1.297715806  3.610210323 -0.126194194
 H  0.438864194  2.642570323 -0.911754194
 C  2.273194194  1.157440323  0.348705806
 C  3.570374194 -0.927389677 -0.965384194
 H  1.632104194 -1.749019677 -1.289124194
 C -0.125815806 -2.315259677  0.720105806
 C -2.414125806 -2.677449677 -0.833324194
 H -2.163745806 -0.629609677 -1.426834194
 C -2.865415806  2.233870323  1.065575806
 H -2.315445806  0.194440323  1.350765806
 C -2.504725806  3.472930323  0.555025806
 H -1.010125806  4.580640323 -0.521804194
 C  3.666684194  1.177220323  0.186235806
 H  1.821684194  1.969990323  0.911145806
 C  4.315594194  0.127230323 -0.457594194
 H  4.064904194 -1.761929677 -1.456734194
 C -0.759375806 -3.559559677  0.685245806
 H  0.753504194 -2.187099677  1.347095806
 C -1.906875806 -3.737209677 -0.084874194
 H -3.314085806 -2.810259677 -1.427784194
 H -3.812175806  2.108150323  1.585245806
 H  4.245704194  2.009030323  0.578395806
 H -0.358405806 -4.386819677  1.264815806
 H -7.340901787  8.262660708  1.828984541
 C -6.417427347  7.800587559  1.484071395
 C -5.464629480  8.583423302  0.818727706
 H -5.658672054  9.641720284  0.654725407
 C -4.261662537  8.026294377  0.357865030
 H -3.522096003  8.628280251 -0.157937403
 C -4.038747269  6.661435369  0.579823858
 N -2.981510148  5.853655633  0.248339054
 C -5.005928559  5.923143405  1.240563571
 O -4.561879511  4.637060485  1.328657857
 C -6.207575464  6.435128502  1.714220803
 H -6.931819467  5.813951968  2.225388579
 C -3.336330338  4.664998630  0.707510241
 H  11.099717095  1.465381310 -0.829231836
 C  10.146772161  0.948709420 -0.930364553
 C  10.110736026 -0.312626590 -1.539520251
 H  11.033697678 -0.759822744 -1.903799217
 C  8.902933504 -1.011597244 -1.689752093
 H  8.870536697 -1.987421635 -2.161042879
 C  7.729815849 -0.411818007 -1.214508066
 N  6.428028878 -0.842410612 -1.223524505
 C  7.808593479  0.835931020 -0.619522275
 O  6.548633909  1.202224581 -0.249008651
 C  8.982127975  1.560004073 -0.449315941
 H  8.989645334  2.533828446  0.023221612
 C  5.764749633  0.145540489 -0.645896351
 H -4.071967012 -10.301916164  0.327551493
 C -4.031768002 -9.247669590  0.058795254
 C -5.024126132 -8.712795338 -0.773354176
 H -5.821448280 -9.356181008 -1.140606199
 C -5.008420282 -7.359098565 -1.143725459
 H -5.773910695 -6.941391699 -1.787886311
 C -3.969507885 -6.554324993 -0.659166301
 N -3.693709021 -5.224655879 -0.849049524
 C -3.008278216 -7.121955335  0.159933791
 O -2.114320863 -6.147541710  0.492059936
 C -2.987860914 -8.454786461  0.551826021
 H -2.211915971 -8.849820537  1.194896532
 C -2.586110020 -5.029444520 -0.152803881
