      72
<yaff.system.System object at 0x7eff68378c50>
 C  2.750545300  0.714052633  0.000000000
 C  3.967385300  1.427232633  0.000000000
 C  5.134923300  0.697167633  0.000000000
 C  5.134905300 -0.697294367  0.000000000
 C  3.967338300 -1.427295367  0.000000000
 C  2.750523300 -0.714054367  0.000000000
 H  3.973029300  2.508793633  0.000000000
 H  3.972857300 -2.508858367  0.000000000
 C  1.523744300 -1.428965367  0.000000000
 C  0.475695300 -2.034128367  0.000000000
 C -0.756889700 -2.739018367  0.000000000
 C -0.747637700 -4.149421367  0.000000000
 C -1.963640700 -4.795554367  0.000000000
 C -3.171301700 -4.098371367  0.000000000
 C -3.219770700 -2.722223367  0.000000000
 C -1.993726700 -2.024989367  0.000000000
 H  0.186211300 -4.695066367  0.000000000
 H -4.159213700 -2.186260367  0.000000000
 C -1.999634700 -0.605105367  0.000000000
 C  1.523820300  1.429081633  0.000000000
 C  0.475673300  2.034067633  0.000000000
 C -0.756847700  2.739067633  0.000000000
 C -0.747585700  4.149487633  0.000000000
 C -1.963575700  4.795616633  0.000000000
 C -3.171234700  4.098376633  0.000000000
 C -3.219715700  2.722243633  0.000000000
 C -1.993596700  2.025034633  0.000000000
 H  0.186303300  4.695069633  0.000000000
 H -4.159103700  2.186199633  0.000000000
 C -1.999479700  0.605114633  0.000000000
 B  7.229632068 -0.000151273 -0.000009000
 C  8.765326904 -0.000192057  0.000000000
 C  9.482778138  1.207929772  0.000003000
 C  9.482819944 -1.208307103  0.000004000
 C  10.874638091  1.209091136  0.000010000
 C  10.874683467 -1.209415698  0.000010000
 C  11.571294402 -0.000153013  0.000013000
 O  6.436131713  1.148083493 -0.000003000
 O  6.436050436 -1.148318937 -0.000002000
 H  11.417306255  2.147787527  0.000012000
 H  11.417383316 -2.148095783  0.000012000
 H  8.941242318 -2.147992246  0.000001000
 H  8.941165490  2.147590119  0.000000000
 H  12.655828880 -0.000134653  0.000018000
 B -3.614888719 -6.261007815 -0.000009000
 C -4.382758632 -7.590945569  0.000000000
 C -3.695208238 -8.816330848  0.000003000
 C -5.787763306 -7.608268795  0.000004000
 C -4.390120814 -10.022304309  0.000010000
 C -6.484643520 -8.813110387  0.000010000
 C -5.785685134 -10.021017756  0.000013000
 O -2.223739155 -6.147920318 -0.000003000
 O -4.212452432 -4.999667893 -0.000002000
 H -3.848510917 -10.961611698  0.000012000
 H -7.568914238 -8.813772656  0.000012000
 H -6.330774752 -6.669411477  0.000001000
 H -2.610632174 -8.817100250 -0.000000000
 H -6.327927416 -10.960266574  0.000018000
 B -3.614689077  6.261118739 -0.000009000
 C -4.382501998  7.591089397  0.000000000
 C -5.787491820  7.608358608  0.000003000
 C -3.694990955  8.816514545  0.000004000
 C -6.484428313  8.813163573  0.000010000
 C -4.389963391  10.022457581  0.000010000
 C -5.785521063  10.021108142  0.000013000
 O -4.212338596  4.999809521 -0.000003000
 O -2.223555826  6.147941578 -0.000002000
 H -7.568697316  8.813779123  0.000012000
 H -3.848393096  10.961789816  0.000012000
 H -2.610410937  8.817337805  0.000001000
 H -6.330454647  6.669477786  0.000000000
 H -6.327804782  10.960333037  0.000018000
