      54
<yaff.system.System object at 0x7ffb67b77e90>
 C -0.000000000  3.577958000 -0.000000182
 C  1.133739000  2.852350000 -0.402520182
 C  1.135339000  1.463226000 -0.401762182
 C -0.000000000  0.741600000 -0.000000182
 C -1.135339000  1.463225000  0.401761818
 C -1.133738000  2.852349000  0.402519818
 C -0.000000000 -0.741600000 -0.000000182
 C -1.135339000 -1.463226000 -0.401762182
 C -1.133739000 -2.852350000 -0.402520182
 C -0.000000000 -3.577958000 -0.000000182
 C  1.133738000 -2.852349000  0.402519818
 C  1.135339000 -1.463225000  0.401761818
 H -2.020512000 -3.385811000 -0.727052182
 H -2.020512000  3.385812000  0.727052818
 H  2.020512000 -3.385812000  0.727052818
 H  2.020512000  3.385811000 -0.727052182
 H -2.015826000 -0.929067000 -0.740072182
 H -2.015827000  0.929068000  0.740072818
 H  2.015826000  0.929067000 -0.740072182
 H  2.015827000 -0.929068000  0.740072818
 C -0.036535883  5.052235064  0.018372241
 N  0.962002756  5.780564404 -0.370879375
 H -0.969641235  5.521567936  0.381033841
 N  0.646571344  7.133472540 -0.265725800
 C  1.635537356  7.871347307 -0.659860585
 C  1.559317471  9.344822220 -0.675517974
 H  2.580290283  7.415075274 -1.008203118
 C  2.664720551  10.071088563 -1.128559899
 C  2.608954184  11.465752101 -1.167440407
 H  3.568495903  9.563792352 -1.455234768
 C  1.453723213  12.131032909 -0.754563911
 H  3.464951748  12.034822842 -1.521685360
 C  0.352090115  11.405323680 -0.299881172
 H  1.411072076  13.217098008 -0.788013220
 C  0.402619618  10.010895261 -0.259221946
 H -0.547393327  11.924827860  0.020884362
 H -0.460111667  9.450799509  0.093199122
 C  0.036535888 -5.052237063  0.018372488
 N -0.962002857 -5.780566423 -0.370878820
 H  0.969641339 -5.521569916  0.381033859
 N -0.646571416 -7.133474553 -0.265725262
 C -1.635537535 -7.871349340 -0.659859741
 C -1.559317655 -9.344824255 -0.675517076
 H -2.580290557 -7.415077325 -1.008202041
 C -2.664720857 -10.071090621 -1.128558664
 C -2.608954500 -11.465754160 -1.167439116
 H -3.568496298 -9.563794426 -1.455233314
 C -1.453723418 -12.131034948 -0.754562901
 H -3.464952161 -12.034824919 -1.521683809
 C -0.352090196 -11.405325696 -0.299880497
 H -1.411072289 -13.217100048 -0.788012166
 C -0.402619688 -10.010897274 -0.259221328
 H  0.547393333 -11.924829859  0.020884819
 H  0.460111692 -9.450801505  0.093199478
