      60
<yaff.system.System object at 0x7fcc33d54e90>
 C  2.594721975 -0.803042738 -0.463296744
 C  1.192502366 -0.497212196 -0.218045132
 C  0.065053697 -1.207654423 -0.591075722
 H  0.117972119 -2.139694743 -1.142514618
 C -1.136014647 -0.628168196 -0.220766459
 C -2.493796812 -1.086064864 -0.477627101
 C -1.212416318  0.572343425  0.469936694
 C -2.634581919  0.879079250  0.641083051
 C -0.077288290  1.277983164  0.852371574
 H -0.130718641  2.219027793  1.389272092
 C  1.131286774  0.698479109  0.482625637
 C  2.510597082  1.145897664  0.689299179
 N -3.354717750 -0.136510250  0.035418250
 N  3.344032250  0.208749750  0.102548250
 O -2.977386949  1.885929367  1.234317595
 O -2.674622336 -2.137303305 -1.063707033
 O  2.734903026  2.186746473  1.279923781
 O  2.894996663 -1.814846508 -1.070204593
 C -4.779157750 -0.244520250 -0.079881750
 C  4.776282250  0.250709750  0.090598250
 C -5.598447750  0.885339750 -0.236421750
 C -6.987337750  0.768939750 -0.396281750
 H -5.191987750  1.892079750 -0.255001750
 C -7.593107750 -0.481480250 -0.397281750
 H -7.592377750  1.663179750 -0.526491750
 C -6.810587750 -1.614680250 -0.229201750
 C -5.424057750 -1.494860250 -0.070921750
 H -7.269907750 -2.600490250 -0.224171750
 H -4.878867750 -2.424760250  0.057408250
 C  5.483312250  1.458609750  0.205788250
 C  6.885602250  1.492349750  0.200838250
 H  4.976532250  2.412839750  0.314018250
 C  7.616882250  0.317529750  0.076798250
 H  7.402702250  2.444229750  0.296648250
 C  6.945222250 -0.890780250 -0.041811750
 C  5.544762250 -0.921110250 -0.033961750
 H  7.503602250 -1.818700250 -0.141941750
 H  5.089732250 -1.901230250 -0.138591750
 N -9.046803782 -0.577329067 -0.456067198
 B -9.761601589 -1.858679299 -0.914735074
 B -9.957946855  0.596977441 -0.063639026
 H -9.176509338 -2.827398728 -1.226779647
 N -11.281553678 -1.973949793 -0.984114365
 H -9.531904864  1.632033428  0.290288898
 N -11.480471312  0.512514044 -0.119871387
 B -12.127349827 -0.779592928 -0.583168100
 H -11.733566199 -2.861583442 -1.298575355
 H -12.068726957  1.331952871  0.151348985
 H -13.305126523 -0.856751365 -0.632243347
 N  9.046803782  0.577329067  0.456067198
 B  9.761601589  1.858679299  0.914735074
 B  9.957946855 -0.596977441  0.063639026
 H  9.176509338  2.827398728  1.226779647
 N  11.281553678  1.973949793  0.984114365
 H  9.531904864 -1.632033428 -0.290288898
 N  11.480471312 -0.512514044  0.119871387
 B  12.127349827  0.779592928  0.583168100
 H  11.733566199  2.861583442  1.298575355
 H  12.068726957 -1.331952871 -0.151348985
 H  13.305126523  0.856751365  0.632243347
