      93
<yaff.system.System object at 0x7eff68378f10>
 N  1.048041667 -2.362353333 -0.827760000
 C  0.687191667 -1.111843333 -0.380820000
 C -0.707988333 -1.156633333 -0.350020000
 N -1.140578333 -2.423203333 -0.704650000
 C -1.452748333 -0.004173333  0.016440000
 C -2.937038333  0.018916667  0.013290000
 C -0.690808333  1.125556667  0.389200000
 H -1.190148333  2.031256667  0.727650000
 C  0.707131667  1.132496667  0.363290000
 H  1.218751667  2.041706667  0.676780000
 C  1.457221667  0.014596667 -0.038090000
 C  2.930271667  0.035566667 -0.088570000
 C -3.644438333  1.216186667 -0.227900000
 C  3.614231667  1.150886667 -0.607650000
 C  3.709801667 -1.028743333  0.397570000
 C -3.714278333 -1.126953333  0.257540000
 C -5.114658333 -1.083173333  0.260860000
 H -3.237768333 -2.085023333  0.454110000
 C  5.107441667 -0.993503333  0.339110000
 H  3.237601667 -1.893393333  0.858000000
 C -5.778958333  0.116916667  0.034260000
 H -5.680408333 -1.992973333  0.442850000
 C -5.043148333  1.269606667 -0.208850000
 H -3.111798333  2.138136667 -0.449260000
 C  5.011001667  1.198966667 -0.646670000
 H  3.058831667  2.004406667 -0.992550000
 C  5.757241667  0.121996667 -0.180560000
 H  5.688571667 -1.831683333  0.715280000
 H  5.511931667  2.079726667 -1.040580000
 H -5.551588333  2.212836667 -0.390060000
 C -0.066158333 -3.157953333 -0.916690000
 H  1.993111667 -2.657013333 -1.011250000
 C -0.040848333 -4.599613333 -1.196060000
 C -1.251718333 -5.281883333 -1.390290000
 C -1.273518333 -6.658563333 -1.631550000
 H -2.193238333 -4.735723333 -1.348080000
 C  1.151281667 -5.339883333 -1.242140000
 C -0.081488333 -7.375973333 -1.679350000
 H -2.223038333 -7.167013333 -1.777580000
 C  1.130121667 -6.718103333 -1.483600000
 H  2.116521667 -4.871123333 -1.078620000
 H  2.060961667 -7.279213333 -1.512890000
 C -7.253617905  0.107896485  0.055778844
 N -7.962055482  1.167484114 -0.177566642
 H -7.741286703 -0.858837857  0.279578388
 N -9.320946850  0.867415664 -0.112084972
 C -10.039141659  1.918451509 -0.351615851
 C -11.513925765  1.875197923 -0.369613462
 H -9.564246403  2.894853661 -0.559457411
 C -12.218252955  3.049832529 -0.650295679
 C -13.613882925  3.028638411 -0.688711303
 H -11.693138145  3.981483742 -0.843055262
 C -14.301949712  1.838808523 -0.446857868
 H -14.165972871  3.938886988 -0.909408034
 C -13.598096074  0.667670846 -0.163993305
 H -15.388760327  1.823539411 -0.479795937
 C -12.202805400  0.683428730 -0.124589702
 H -14.135343523 -0.258617051  0.023627297
 H -11.659834298 -0.233027596  0.093362852
 C  7.229262645  0.192330202 -0.238635059
 N  7.990813220 -0.783446154  0.144719980
 H  7.666719654  1.127767993 -0.633691870
 N  9.331950188 -0.453967802 -0.038883726
 C  10.102646162 -1.425981326  0.334040662
 C  11.572123956 -1.350411913  0.224007838
 H  9.678786875 -2.359697222  0.747081472
 C  12.335045025 -2.447575342  0.634872304
 C  13.726335573 -2.404495678  0.524587596
 H  11.858859445 -3.337768385  1.036966127
 C  14.351799905 -1.269503002  0.006697508
 H  14.323758400 -3.256330344  0.840065794
 C  13.589588120 -0.173924802 -0.400398753
 H  15.435241349 -1.238704754 -0.080946541
 C  12.198353432 -0.211982315 -0.292441865
 H  14.078083678  0.709344667 -0.804196619
 H  11.609635622  0.643658291 -0.614161656
 C -0.057017845 -8.815277071 -2.000241294
 N -1.133992330 -9.497809157 -2.231186681
 H  0.936674042 -9.298414299 -2.040704044
 N -0.816146626 -10.821765917 -2.526190548
 C -1.885544241 -11.512016751 -2.766602068
 C -1.833340674 -12.940991054 -3.130594066
 H -2.886222270 -11.045347217 -2.712308335
 C -3.031313788 -13.613800912 -3.389076304
 C -3.004709590 -14.962090794 -3.751173769
 H -3.985869410 -13.099739468 -3.315318591
 C -1.786149759 -15.634589813 -3.853551294
 H -3.933483173 -15.488863951 -3.955996858
 C -0.591291344 -14.962887813 -3.592561726
 H -1.767118828 -16.683903956 -4.138249429
 C -0.612369363 -13.614915334 -3.230397493
 H  0.357273842 -15.487822467 -3.673266612
 H  0.322190277 -13.096122111 -3.031236753
