      66
<yaff.system.System object at 0x7eff68378ed0>
 C  1.214670000 -0.706990000 -0.100210000
 C -0.003630000 -1.377070000 -0.034780000
 O -0.065580000 -2.740060000 -0.060670000
 C -1.202870000 -0.677230000  0.059480000
 C -1.171390000  0.714080000  0.087980000
 O -2.318460000  1.447630000  0.179540000
 C  0.034640000  1.405600000  0.023800000
 C  1.221460000  0.684370000 -0.070160000
 O  2.430470000  1.313820000 -0.136030000
 H -3.072450000  0.835100000  0.215630000
 H  2.278920000  2.273550000 -0.105640000
 H  0.839910000 -3.087250000 -0.127960000
 H  8.652370994 -4.205207788 -0.914263316
 C  7.789696560 -4.850021189 -0.763323793
 C  7.964721683 -6.229793031 -0.677131675
 H  8.960303131 -6.659174494 -0.757743674
 C  6.861471892 -7.060102392 -0.498694604
 H  6.991404552 -8.138007045 -0.442001976
 C  5.582724209 -6.507962048 -0.398529087
 H  4.728217582 -7.170158571 -0.264700757
 C  5.391660694 -5.119092201 -0.476428406
 C  3.987942295 -4.604099595 -0.381148019
 C  6.509252976 -4.293972693 -0.670059144
 H  6.422873329 -3.219070418 -0.776678880
 O  3.056123286 -5.403668238 -0.434764700
 N  3.834355833 -3.231753915 -0.232800591
 H  4.623511234 -2.613257591 -0.118324683
 N  2.579633126 -2.699679885 -0.197944312
 C  2.512276794 -1.409264179 -0.133237188
 H  3.419508297 -0.779225989 -0.111676066
 H -8.097619839 -5.212801067 -0.273125345
 C -8.190819584 -4.134563338 -0.165927170
 C -9.454356323 -3.557784240 -0.053526136
 H -10.342976607 -4.183983288 -0.070196390
 C -9.578978690 -2.176533174  0.069063768
 H -10.562964217 -1.720625819  0.145848921
 C -8.437212697 -1.372709285  0.087099807
 H -8.550184527 -0.293085220  0.177902201
 C -7.157217014 -1.940231983 -0.018076518
 C -5.982100899 -1.010831831 -0.011867166
 C -7.045120027 -3.331646485 -0.154925052
 H -6.088453364 -3.825259175 -0.278939252
 O -6.179438612  0.198165262 -0.111140950
 N -4.726510677 -1.591586891  0.111198586
 H -4.606550932 -2.581735871  0.264897446
 N -3.617042745 -0.800601916  0.065696050
 C -2.479669352 -1.415579110  0.111318385
 H -2.415271127 -2.516369261  0.179111558
 H -0.364946867  9.643559351 -0.418876662
 C  0.610521475  9.177206572 -0.301612688
 C  1.749067526  9.973575586 -0.195111555
 H  1.661605464  11.056821172 -0.226393228
 C  3.001386585  9.380475885 -0.059674314
 H  3.893880352  9.997086269  0.012585655
 C  3.113120401  7.988984290 -0.022871856
 H  4.099899346  7.538736978  0.077828210
 C  1.974149735  7.173832856 -0.121902071
 C  2.177117534  5.689642956 -0.095340883
 C  0.719502855  7.782696185 -0.271816134
 H -0.191383873  7.208152531 -0.391937200
 O  3.318955436  5.243787601 -0.184170147
 N  1.038241666  4.905236665  0.033488278
 H  0.123979999  5.307208605  0.178239262
 N  1.155592784  3.547246303  0.006327729
 C  0.047651839  2.881011564  0.056274884
 H -0.933299147  3.385931055  0.113489163
