      82
<yaff.system.System object at 0x7eff68378ed0>
 C -0.000001000 -0.000001000  1.760854000
 C -0.000001000 -0.000001000 -1.760853000
 H  0.583501000 -0.548807000 -2.343561000
 H -0.583501000  0.548807000 -2.343561000
 C  0.925717000 -0.871783000  0.897399000
 C -0.925717000  0.871783000  0.897399000
 C -0.871783000 -0.925717000 -0.897399000
 C  0.871783000  0.925717000 -0.897399000
 C  1.773370000  0.051568000 -0.002829000
 C -1.773370000 -0.051569000 -0.002829000
 C  0.051568000 -1.773370000  0.002829000
 C -0.051569000  1.773370000  0.002829000
 H  2.340312000  0.633966000  0.562907000
 H -2.340313000 -0.633966000  0.562907000
 H  0.633966000 -2.340313000 -0.562907000
 H -0.633966000  2.340312000 -0.562907000
 H  2.368699000 -0.498341000 -0.571393000
 H -2.368700000  0.498341000 -0.571393000
 H -0.498341000 -2.368700000  0.571393000
 H  0.498341000  2.368699000  0.571393000
 H -0.548807000 -0.583501000  2.343561000
 H  0.548807000  0.583501000  2.343561000
 B  1.853852257 -1.784378304  1.786527988
 O  1.325234540 -2.633038927  2.679750349
 O  3.188992336 -1.703413172  1.687516677
Si  1.720000737 -3.586234530  3.900725508
Si  4.538106356 -2.201055752  2.385128248
 O  2.692731740 -4.716097703  3.324735818
 O  2.575760151 -2.713978179  4.931998987
 H  0.529660830 -4.163704554  4.540789832
 O  4.448344647 -1.806793607  3.931663784
 O  4.553098581 -3.797933457  2.309832501
 H  5.723831545 -1.614095471  1.745018859
 B  3.846112005 -4.880700098  2.662434504
 H  4.088771182 -5.923196228  2.164755736
 B  3.678791051 -1.957332452  5.018518390
 H  3.795529249 -1.203816744  5.919563971
 B -1.853852081  1.784378756  1.786527708
 O -1.325234242  2.633038650  2.679750689
 O -3.188992163  1.703414738  1.687515525
Si -1.720000440  3.586234162  3.900725919
Si -4.538106221  2.201058174  2.385126410
 O -2.692730164  4.716098316  3.324735994
 O -2.575761212  2.713978157  4.931998563
 H -0.529660471  4.163703008  4.540791190
 O -4.448345810  1.806795437  3.931661870
 O -4.553097107  3.797935917  2.309831191
 H -5.723831480  1.614099068  1.745016074
 B -3.846109878  4.880701867  2.662434006
 H -4.088767896  5.923198361  2.164755434
 B -3.678792780  1.957333293  5.018517014
 H -3.795532157  1.203817377  5.919562268
 B -1.772207987 -1.875358326 -1.776166203
 O -1.571560450 -3.200970739 -1.776002994
 O -2.732841321 -1.369891992 -2.563976461
Si -1.990401275 -4.539994021 -2.542026205
Si -3.763714534 -1.776735244 -3.715583020
 O -3.565624923 -4.725729529 -2.345218438
 O -1.739672940 -4.297452524 -4.102471407
 H -1.236935941 -5.701547085 -2.048926285
 O -2.923417331 -2.475161006 -4.882362362
 O -4.739129499 -2.889912955 -3.111171196
 H -4.508256485 -0.609565741 -4.209120514
 B -4.735862167 -4.102054660 -2.539119098
 H -5.699981092 -4.483214067 -1.974709657
 B -2.069002682 -3.481458491 -5.113595133
 H -1.394970545 -3.457741368 -6.082313382
 B  1.772207987  1.875358326 -1.776166203
 O  1.571560450  3.200970739 -1.776002994
 O  2.732841321  1.369891992 -2.563976461
Si  1.990401275  4.539994021 -2.542026205
Si  3.763714534  1.776735244 -3.715583020
 O  3.565624923  4.725729529 -2.345218438
 O  1.739672940  4.297452524 -4.102471407
 H  1.236935941  5.701547085 -2.048926285
 O  2.923417331  2.475161006 -4.882362362
 O  4.739129499  2.889912955 -3.111171196
 H  4.508256485  0.609565741 -4.209120514
 B  4.735862167  4.102054660 -2.539119098
 H  5.699981092  4.483214067 -1.974709657
 B  2.069002682  3.481458491 -5.113595133
 H  1.394970545  3.457741368 -6.082313382
