      36
<yaff.system.System object at 0x7f88623f7a90>
 F  1.342850000 -2.363239000 -0.181050000
 C  0.684160000 -1.200169000 -0.092040000
 C -0.709070000 -1.188689000 -0.034700000
 F -1.391880000 -2.340709000 -0.068500000
 C -1.404610000  0.011571000  0.057810000
 C -0.684160000  1.200171000  0.092040000
 F -1.342850000  2.363241000  0.181050000
 C  0.709070000  1.188691000  0.034700000
 F  1.391880000  2.340711000  0.068500000
 C  1.404610000 -0.011579000 -0.057810000
 H -8.234157263 -1.114176616  0.265325375
 C -7.279130723 -0.594085854  0.213252130
 C -7.262965132  0.802483847  0.100693061
 H -8.203209296  1.349576740  0.066457770
 C -6.053310712  1.510786145  0.030261893
 H -6.036342159  2.591250550 -0.057524999
 C -4.858158211  0.781734532  0.073750900
 N -3.549820833  1.188880224  0.022503482
 C -4.917861138 -0.597116102  0.184647837
 O -3.639333394 -1.070399509  0.202510110
 C -6.092141040 -1.335993186  0.259230433
 H -6.084235098 -2.414995251  0.345103576
 C -2.864706988  0.059922702  0.098100781
 H  8.234157263  1.114176616 -0.265325375
 C  7.279130723  0.594085854 -0.213252130
 C  7.262965132 -0.802483847 -0.100693061
 H  8.203209296 -1.349576740 -0.066457770
 C  6.053310712 -1.510786145 -0.030261893
 H  6.036342159 -2.591250550  0.057524999
 C  4.858158211 -0.781734532 -0.073750900
 N  3.549820833 -1.188880224 -0.022503482
 C  4.917861138  0.597116102 -0.184647837
 O  3.639333394  1.070399509 -0.202510110
 C  6.092141040  1.335993186 -0.259230433
 H  6.084235098  2.414995251 -0.345103576
 C  2.864706988 -0.059922702 -0.098100781
