     109
<yaff.system.System object at 0x7eff68378f10>
 C -0.000000000  0.000000000 -0.000000000
 C -0.334711000 -3.282421000 -2.523411000
 C -3.282421000  0.334711000  2.523412000
 C  0.334711000  3.282422000 -2.523411000
 C  3.282421000 -0.334711000  2.523412000
 C -1.442915000 -2.894269000 -1.866366000
 C -2.894268000  1.442915000  1.866365000
 C  1.442915000  2.894269000 -1.866366000
 C  2.894269000 -1.442914000  1.866365000
 C -1.355721000 -1.850757000 -1.055712000
 C -1.850756000  1.355721000  1.055713000
 C  1.355722000  1.850757000 -1.055712000
 C  1.850757000 -1.355721000  1.055713000
 C -0.132197000 -1.201023000 -0.847056000
 C -1.201023000  0.132197000  0.847056000
 C  0.132198000  1.201023000 -0.847056000
 C  1.201024000 -0.132198000  0.847056000
 C  0.964755000 -1.566674000 -1.552049000
 C -1.566674000 -0.964756000  1.552050000
 C -0.964756000  1.566674000 -1.552049000
 C  1.566675000  0.964754000  1.552050000
 C  0.874751000 -2.604561000 -2.363589000
 C -2.604559000 -0.874752000  2.363589000
 C -0.874750000  2.604559000 -2.363589000
 C  2.604560000  0.874750000  2.363589000
 H -2.387983000 -3.392116000 -1.994223000
 H -3.392115000  2.387984000  1.994223000
 H  2.387983000  3.392116000 -1.994223000
 H  3.392116000 -2.387983000  1.994223000
 H -2.258597000 -1.552610000 -0.616202000
 H -1.552610000  2.258597000  0.616202000
 H  2.258598000  1.552609000 -0.616202000
 H  1.552610000 -2.258598000  0.616202000
 H  1.907010000 -1.051950000 -1.461484000
 H -1.051950000 -1.907011000  1.461484000
 H -1.907010000  1.051952000 -1.461484000
 H  1.051951000  1.907009000  1.461484000
 H  1.760751000 -2.888643000 -2.847495000
 H -2.888643000 -1.760751000  2.847496000
 H -1.760749000  2.888644000 -2.847495000
 H  2.888643000  1.760751000  2.847496000
 C -0.413026241 -4.447105646 -3.424821936
 N -1.516122084 -5.092919161 -3.637340940
 H  0.524528849 -4.751729788 -3.925498444
 N -1.304995170 -6.130136744 -4.543166412
 C -2.403577508 -6.778134248 -4.769155908
 C -2.467497357 -7.912470691 -5.710632426
 H -3.344013404 -6.494908049 -4.261762542
 C -3.694351345 -8.552137079 -5.911336081
 C -3.781686147 -9.617340150 -6.809903282
 H -4.584689847 -8.228803320 -5.378768306
 C -2.647561606 -10.041392301 -7.503852450
 H -4.734147389 -10.116091120 -6.971544485
 C -1.422987980 -9.404123155 -7.300645083
 H -2.717958570 -10.869390868 -8.205235381
 C -1.330338940 -8.338594460 -6.403593371
 H -0.540448042 -9.735101978 -7.842329362
 H -0.374000356 -7.844042254 -6.251778489
 C -4.440876520  0.415489973  3.432598914
 N -5.127770917  1.502338038  3.593835483
 H -4.708350736 -0.507372009  3.979650727
 N -6.172389645  1.288283983  4.490421925
 C -6.870932242  2.366875380  4.653314563
 C -8.054049989  2.411501931  5.533896083
 H -6.603753881  3.300964199  4.125888187
 C -8.764520100  3.610352538  5.646213489
 C -9.896796668  3.671159341  6.461051061
 H -8.449032887  4.497587633  5.103850596
 C -10.316184239  2.538879727  7.160823231
 H -10.454290107  4.600387513  6.549362416
 C -9.604707153  1.343655876  7.050251690
 H -11.199730445  2.587307240  7.792864569
 C -8.472190147  1.277501143  6.236823266
 H -9.932863620  0.462232240  7.595459256
 H -7.923709313  0.342491719  6.152328988
 C  0.413026158  4.447106809 -3.424821733
 N  1.516121612  5.092921442 -3.637339358
 H -0.524528637  4.751730064 -3.925499332
 N  1.304994747  6.130138900 -4.543164984
 C  2.403576710  6.778137520 -4.769153106
 C  2.467496554  7.912474116 -5.710629441
 H  3.344012281  6.494912210 -4.261758643
 C  3.694350145  8.552141745 -5.911331569
 C  3.781684959  9.617344987 -6.809898566
 H  4.584688332  8.228808822 -5.378762761
 C  2.647560825  10.041396074 -7.503849049
 H  4.734145898  10.116096921 -6.971538584
 C  1.422987591  9.404125690 -7.300643206
 H  2.717957803  10.869394777 -8.205231818
 C  1.330338541  8.338596817 -6.403591705
 H  0.540447970  9.735103684 -7.842328508
 H  0.374000268  7.844043645 -6.251778012
 C  4.440876068 -0.415489889  3.432599497
 N  5.127769477 -1.502338347  3.593837628
 H  4.708350834  0.507372506  3.979650343
 N  6.172388008 -1.288284127  4.490424260
 C  6.870929624 -2.366875925  4.653318456
 C  8.054046961 -2.411502446  5.533900527
 H  6.603750694 -3.300965135  4.125893060
 C  8.764516010 -3.610353523  5.646219635
 C  9.896792183 -3.671160331  6.461057756
 H  8.449028275 -4.497588986  5.103857647
 C  10.316180417 -2.538880253  7.160828779
 H  10.454284798 -4.600388872  6.549370434
 C  9.604704389 -1.343655929  7.050255539
 H  11.199726315 -2.587307775  7.792870546
 C  8.472187782 -1.277501190  6.236826559
 H  9.932861372 -0.462231933  7.595462211
 H  7.923707775 -0.342491401  6.152330955
