     108
<yaff.system.System object at 0x7f52cddc0090>
 C -5.583474167 -2.420772783  0.000000000
 C  4.888188833 -3.625045783  0.000000000
 C  0.695285833  6.045818217  0.000000000
 C -0.695287167  6.045818217  0.000000000
 C  5.583474833 -2.420772783  0.000000000
 C -4.888187167 -3.625045783  0.000000000
 C -4.886262167 -1.199823783  0.000000000
 C  3.482207833 -3.631715783  0.000000000
 C  1.404053833  4.831539217  0.000000000
 C -1.404054167  4.831539217  0.000000000
 C  4.886261833 -1.199823783  0.000000000
 C -3.482208167 -3.631715783  0.000000000
 C -5.591177167  0.021127217  0.000000000
 C  2.777292833 -4.852666783  0.000000000
 C  2.813885833  4.831539217  0.000000000
 C -2.813885167  4.831539217  0.000000000
 C  5.591178833  0.021127217  0.000000000
 C -2.777292167 -4.852666783  0.000000000
 C -4.882410167  1.248750217  0.000000000
 C  1.359754833 -4.852666783  0.000000000
 C  3.522654833  3.603916217  0.000000000
 C -3.522655167  3.603916217  0.000000000
 C  4.882409833  1.248750217  0.000000000
 C -1.359756167 -4.852666783  0.000000000
 C -3.464874167  1.248750217  0.000000000
 C  0.650987833 -3.625045783  0.000000000
 C  2.813885833  2.376295217  0.000000000
 C -2.813887167  2.376295217  0.000000000
 C  3.464873833  1.248750217  0.000000000
 C -0.650987167 -3.625045783  0.000000000
 C -2.758032167  0.024463217  0.000000000
 C  1.357830833 -2.400758783  0.000000000
 C  1.400200833  2.376295217  0.000000000
 C -1.400202167  2.376295217  0.000000000
 C  2.758031833  0.024463217  0.000000000
 C -1.357829167 -2.400758783  0.000000000
 C -3.468725167 -1.199823783  0.000000000
 C  2.773439833 -2.404092783  0.000000000
 C  0.695285833  3.603916217  0.000000000
 C -0.695286167  3.603916217  0.000000000
 C  3.468725833 -1.199823783  0.000000000
 C -2.773440167 -2.404092783  0.000000000
 H  3.354423833  5.778069217  0.000000000
 H  4.612654833  3.603915217  0.000000000
 H  0.855198833  1.432329217  0.000000000
 H -3.354422167  5.778070217  0.000000000
 H -4.612655167  3.603915217  0.000000000
 H -0.855201167  1.432328217  0.000000000
 H -6.681165167  0.015983217  0.000000000
 H -5.427411167  2.192718217  0.000000000
 H -1.668032167  0.024463217  0.000000000
 H -0.812828167 -1.456791783  0.000000000
 H -0.814756167 -5.796634783  0.000000000
 H -3.326741167 -5.794051783  0.000000000
 H  3.326742833 -5.794050783  0.000000000
 H  0.814752833 -5.796632783  0.000000000
 H  0.812831833 -1.456790783  0.000000000
 H  6.681166833  0.015983217  0.000000000
 H  5.427408833  2.192719217  0.000000000
 H  1.668031833  0.024463217  0.000000000
 C  7.005038075 -2.736692476  0.002452522
 C  5.873427131 -4.697868290  0.004694686
 N  7.126873392 -4.114060910  0.007821995
 O  5.509412768 -5.860627988  0.016553678
 O  7.829616047 -1.839768646 -0.010873866
 C  8.366899730 -4.829558686  0.018109317
 C  8.429983615 -6.200251773 -0.285500427
 H  7.545564934 -6.771372770 -0.550788722
 C  9.642472114 -6.902737722 -0.273387072
 H  9.653004180 -7.962669271 -0.515876054
 C  10.826029357 -6.250352721  0.045306300
 H  11.766639790 -6.794024167  0.056403362
 C  10.795034325 -4.895986703  0.349730245
 H  11.714372340 -4.373439770  0.602945519
 C  9.580923277 -4.196361882  0.334668267
 H  9.629680523 -3.142432448  0.590794534
 C -5.872562426 -4.698195365  0.002452522
 C -7.005185424 -2.737603860  0.004694686
 N -7.126316256 -4.115023880  0.007821995
 O -7.830157859 -1.840978492  0.016553678
 O -5.508092356 -5.860762677 -0.010873866
 C -8.365968531 -4.831169551  0.018109317
 C -9.584565634 -4.200455499 -0.285500427
 H -9.636961797 -3.148965965 -0.550788722
 C -10.799180421 -4.899258610 -0.273387072
 H -11.722374206 -4.378414058 -0.515876054
 C -10.825976787 -6.250441755  0.045306300
 H -11.767115178 -6.793198752  0.056403362
 C -9.637563762 -6.900782040  0.349730245
 H -9.644693639 -7.958225584  0.602945519
 C -8.424615512 -6.199143197  0.334668267
 H -7.536264357 -6.768332749  0.590794534
 C -1.132475040  7.434887180  0.002452522
 C  1.131758509  7.435471630  0.004694686
 N -0.000556773  8.229084060  0.007821995
 O  2.320745083  7.701605986  0.016553678
 O -2.321522890  7.700530542 -0.010873866
 C -0.000930925  9.660727259  0.018109317
 C  1.154582047  10.400706237 -0.285500427
 H  2.091396758  9.920337841 -0.550788722
 C  1.156708247  11.801995053 -0.273387072
 H  2.069369774  12.341082013 -0.515876054
 C -0.000052471  12.500793004  0.045306300
 H  0.000475418  13.587221257  0.056403362
 C -1.157470219  11.796767321  0.349730245
 H -2.069678232  12.331663782  0.602945519
 C -1.156307335  10.395503901  0.334668267
 H -2.093415543  9.910764045  0.590794534
