      36
<yaff.system.System object at 0x7eff68378f10>
 C -0.000013000 -1.415145000  0.000000000
 C  0.000013000  1.415145000  0.000000000
 C -1.206999000 -0.694755000  0.000000000
 C  1.206999000  0.694755000  0.000000000
 C -1.206984000  0.694770000  0.000000000
 C  1.206984000 -0.694770000  0.000000000
 H  2.148535000 -1.233078000  0.000000000
 H -2.148535000  1.233078000  0.000000000
 H  2.148565000  1.233036000  0.000000000
 H -2.148565000 -1.233036000  0.000000000
 B -0.000034114 -2.953682000 -0.000000000
 O -1.146288547 -3.745073544  0.000000000
 O  1.146188453 -3.745108455 -0.000000000
 C -0.696981657 -5.047713171 -0.000000000
 C  0.696841343 -5.047736828 -0.000000000
 C -1.429861533 -6.218735731 -0.000000000
 C  1.429681467 -6.218784267 -0.000000000
 C -0.699164819 -7.413902134 -0.000000000
 C  0.698942181 -7.413925864 -0.000000000
 H -2.512204309 -6.205559361  0.000000000
 H  2.512023690 -6.205648638 -0.000000000
 H -1.231102840 -8.357826105 -0.000000000
 H  1.230850159 -8.357866893 -0.000000000
 B  0.000034114  2.953682000 -0.000000000
 O  1.146288547  3.745073544  0.000000000
 O -1.146188453  3.745108455 -0.000000000
 C  0.696981657  5.047713171 -0.000000000
 C -0.696841343  5.047736828 -0.000000000
 C  1.429861533  6.218735731 -0.000000000
 C -1.429681467  6.218784267 -0.000000000
 C  0.699164819  7.413902134 -0.000000000
 C -0.698942181  7.413925864 -0.000000000
 H  2.512204309  6.205559361  0.000000000
 H -2.512023690  6.205648638 -0.000000000
 H  1.231102840  8.357826105 -0.000000000
 H -1.230850159  8.357866893 -0.000000000
