      64
<yaff.system.System object at 0x7eff68378ed0>
 N  0.000000000  0.000000000  0.000000000
 C  1.486664194  0.115830323 -0.171934194
 C -0.789065806  1.237760323  0.199745806
 C -0.613895806 -1.236089677 -0.038794194
 C -0.462675806  2.500160323 -0.322134194
 C  2.176224194 -0.918259677 -0.846584194
 C -1.765025806 -1.441179677 -0.822204194
 C -2.007925806  1.140170323  0.910585806
 C -1.297715806  3.610210323 -0.126194194
 H  0.438864194  2.642570323 -0.911754194
 C  2.273194194  1.157440323  0.348705806
 C  3.570374194 -0.927389677 -0.965384194
 H  1.632104194 -1.749019677 -1.289124194
 C -0.125815806 -2.315259677  0.720105806
 C -2.414125806 -2.677449677 -0.833324194
 H -2.163745806 -0.629609677 -1.426834194
 C -2.865415806  2.233870323  1.065575806
 H -2.315445806  0.194440323  1.350765806
 C -2.504725806  3.472930323  0.555025806
 H -1.010125806  4.580640323 -0.521804194
 C  3.666684194  1.177220323  0.186235806
 H  1.821684194  1.969990323  0.911145806
 C  4.315594194  0.127230323 -0.457594194
 H  4.064904194 -1.761929677 -1.456734194
 C -0.759375806 -3.559559677  0.685245806
 H  0.753504194 -2.187099677  1.347095806
 C -1.906875806 -3.737209677 -0.084874194
 H -3.314085806 -2.810259677 -1.427784194
 H -3.812175806  2.108150323  1.585245806
 H  4.245704194  2.009030323  0.578395806
 H -0.358405806 -4.386819677  1.264815806
 N -3.346200067  4.645937066  0.759601282
 B -4.587164396  4.611124954  1.666224794
 B -3.046713782  5.992608154  0.081396084
 H -4.912338349  3.645783434  2.249748350
 N -5.479080598  5.829082933  1.888528587
 H -2.135634888  6.142324453 -0.643612833
 N -3.917513014  7.228962073  0.285147274
 B -5.130922639  7.130980404  1.191057181
 H -6.313780725  5.769729847  2.513706514
 H -3.685690450  8.127400867 -0.194593507
 H -5.813560119  8.080952612  1.355613025
 N  5.766698809  0.167134468 -0.593895081
 B  6.619259049  1.255141066  0.078825681
 B  6.537142766 -0.875937719 -1.419482062
 H  6.149234083  2.098831609  0.746197309
 N  8.138099482  1.312062652 -0.056225418
 H  5.997914048 -1.747997014 -1.991201072
 N  8.055151668 -0.847759316 -1.571901930
 B  8.841554111  0.253250320 -0.884890237
 H  8.686034280  2.064995747  0.417012094
 H  8.545538125 -1.571415171 -2.143678556
 H  10.017115824  0.286464382 -0.996564917
 N -2.574865466 -5.033164773 -0.097722568
 B -2.143901853 -6.181860194  0.828527797
 B -3.752637630 -5.334155514 -1.038697938
 H -1.267090274 -6.070958723  1.601201343
 N -2.830970773 -7.544314305  0.825331309
 H -4.165491091 -4.543282755 -1.801711665
 N -4.461888650 -6.684964779 -1.064274955
 B -3.988711521 -7.780349418 -0.126793230
 H -2.512831576 -8.301637795  1.470577861
 H -5.257253719 -6.855451941 -1.719571620
 H -4.528943593 -8.830843294 -0.138268227
