      98
<yaff.system.System object at 0x7eff6837e110>
 C -0.673043696 -0.061281087  0.099838696
 C  0.676216304  0.084438913 -0.077921304
 C -1.445563696  0.859668913  0.987758696
 C -1.208593696  0.910808913  2.368608696
 H -0.435593696  0.291168913  2.815748696
 C -1.956453696  1.762468913  3.184708696
 H -1.756043696  1.803278913  4.251888696
 C -2.958213696  2.558248913  2.631708696
 C -3.215433696  2.502618913  1.263248696
 H -4.001643696  3.116068913  0.831638696
 C -2.465153696  1.655188913  0.445338696
 H -2.681203696  1.618718913 -0.619611304
 C  1.423956304  1.217358913  0.545288696
 C  1.186576304  2.544388913  0.160958696
 H  0.432056304  2.771628913 -0.587751304
 C  1.910456304  3.588888913  0.739918696
 H  1.711366304  4.615018913  0.443058696
 C  2.886286304  3.315958913  1.697168696
 C  3.142086304  1.999178913  2.075248696
 H  3.907026304  1.784298913  2.816488696
 C  2.417466304  0.953908913  1.499138696
 H  2.631376304 -0.068851087  1.799648696
 C -1.412513696 -1.154241087 -0.600071304
 C -1.922953696 -2.232601087  0.134698696
 H -1.770443696 -2.283151087  1.209878696
 C -2.626883696 -3.253351087 -0.507091304
 H -3.013833696 -4.089711087  0.068518696
 C -2.834543696 -3.198741087 -1.884751304
 C -2.343603696 -2.122491087 -2.622201304
 H -2.507323696 -2.077791087 -3.695421304
 C -1.638713696 -1.101381087 -1.982691304
 H -1.261323696 -0.266561087 -2.567421304
 C  1.439886304 -0.894691087 -0.907871304
 C  1.681336304 -2.196721087 -0.447761304
 H  1.299246304 -2.515401087  0.518518696
 C  2.406656304 -3.098111087 -1.228831304
 H  2.581246304 -4.108341087 -0.868861304
 C  2.903116304 -2.703191087 -2.470121304
 C  2.679966304 -1.406181087 -2.930431304
 H  3.069876304 -1.097111087 -3.896341304
 C  1.955636304 -0.502771087 -2.150401304
 H  1.790596304  0.507088913 -2.517471304
 N -3.828641029  3.371468916  3.368481739
 C -4.328556094  2.951937865  4.465985063
 C -5.190598382  3.778947178  5.317454245
 C -5.719865552  3.230271593  6.493483338
 C -6.539278950  3.991216907  7.323783709
 C -6.837449665  5.309532838  6.984709632
 C -6.314130644  5.864761263  5.812787063
 C -5.496568592  5.108359189  4.984156736
 H -4.146679652  1.928665644  4.823566260
 H -5.487461767  2.203049016  6.756417380
 H -6.943491330  3.557462872  8.231236339
 H -7.475062584  5.904556832  7.628876453
 H -6.547034623  6.890597789  5.550263430
 H -5.083650144  5.524673772  4.073502339
 N  3.758975823  4.320000973  2.135480888
 C  3.996098671  4.468995999  3.381277083
 C  4.950997920  5.454918287  3.899143612
 C  5.131085544  5.571180289  5.284157929
 C  6.032359995  6.495962720  5.806035896
 C  6.762419981  7.314211651  4.946201607
 C  6.588488409  7.205314471  3.562932608
 C  5.691273983  6.283718442  3.040584967
 H  3.475812719  3.866357176  4.139009469
 H  4.561470460  4.933714654  5.953118520
 H  6.164354855  6.577914066  6.878818176
 H  7.464776371  8.035177904  5.349262202
 H  7.157186641  7.842657361  2.895190247
 H  5.546006359  6.187633373  1.971578005
 N -3.724744114 -4.105556235 -2.473847675
 C -3.556761503 -5.362549558 -2.324902880
 C -4.490513982 -6.360715520 -2.857661828
 C -4.215772111 -7.722444404 -2.672123649
 C -5.084529279 -8.693680174 -3.163892756
 C -6.237351859 -8.311212767 -3.846939373
 C -6.518895800 -6.954707961 -4.037127776
 C -5.654764621 -5.984979948 -3.547143171
 H -2.681586614 -5.764207828 -1.795026537
 H -3.317180743 -8.019341043 -2.140411329
 H -4.862937339 -9.744259826 -3.014963603
 H -6.915663524 -9.064800507 -4.231066282
 H -7.416212809 -6.658656574 -4.568803674
 H -5.859574644 -4.930571977 -3.686382503
 N  3.736944708 -3.496649236 -3.268218660
 C  4.666165092 -4.192523160 -2.736481994
 C  5.527614836 -5.095250133 -3.507876464
 C  6.542412910 -5.802205987 -2.848625866
 C  7.374651798 -6.668703397 -3.553207632
 C  7.199432167 -6.835922280 -4.925493982
 C  6.189768742 -6.133967032 -5.591363721
 C  5.358630963 -5.270387089 -4.890921218
 H  4.878977937 -4.135745206 -1.659673586
 H  6.678449706 -5.670797769 -1.779720855
 H  8.156509244 -7.210919441 -3.033880008
 H  7.845647475 -7.509646029 -5.476907407
 H  6.054672537 -6.265069804 -6.659101787
 H  4.572178222 -4.720170847 -5.392782832
