      94
<yaff.system.System object at 0x7eff68378f90>
 C -0.000001000 -0.000001000  1.760854000
 C -0.000001000 -0.000001000 -1.760853000
 H  0.583501000 -0.548807000 -2.343561000
 H -0.583501000  0.548807000 -2.343561000
 C  0.925717000 -0.871783000  0.897399000
 C -0.925717000  0.871783000  0.897399000
 C -0.871783000 -0.925717000 -0.897399000
 C  0.871783000  0.925717000 -0.897399000
 C  1.773370000  0.051568000 -0.002829000
 C -1.773370000 -0.051569000 -0.002829000
 C  0.051568000 -1.773370000  0.002829000
 C -0.051569000  1.773370000  0.002829000
 H  2.340312000  0.633966000  0.562907000
 H -2.340313000 -0.633966000  0.562907000
 H  0.633966000 -2.340313000 -0.562907000
 H -0.633966000  2.340312000 -0.562907000
 H  2.368699000 -0.498341000 -0.571393000
 H -2.368700000  0.498341000 -0.571393000
 H -0.498341000 -2.368700000  0.571393000
 H  0.498341000  2.368699000  0.571393000
 H -0.548807000 -0.583501000  2.343561000
 H  0.548807000  0.583501000  2.343561000
 C  1.744815097 -1.743518015  1.799550568
 O  1.173051114 -2.427395428  2.645641026
 N  3.120634826 -1.720016000  1.611146339
 H  3.549882617 -1.203023192  0.858236349
 N  3.921103727 -2.449006320  2.439680862
 C  5.195185052 -2.321655944  2.254221320
 C  6.170992866 -3.047496528  3.090294144
 H  5.606319268 -1.657824756  1.472697928
 C  7.536039522 -2.818050544  2.895642777
 C  8.468631990 -3.491378906  3.687161875
 H  7.884660088 -2.118981736  2.140891049
 C  8.037922590 -4.389887846  4.664846985
 H  9.532144442 -3.315818927  3.545120223
 C  6.674944502 -4.618283490  4.855802541
 H  8.765115611 -4.913004356  5.281205454
 C  5.738743079 -3.946657170  4.069736892
 H  6.338621795 -5.317297230  5.617510946
 H  4.676181292 -4.125747850  4.224549564
 C -1.744814962  1.743518375  1.799550344
 O -1.173050962  2.427395040  2.645641393
 N -3.120634591  1.720017536  1.611145236
 H -3.549882324  1.203025329  0.858234801
 N -3.921103426  2.449008225  2.439679498
 C -5.195184737  2.321658942  2.254219107
 C -6.170992493  3.047500035  3.090291558
 H -5.606318996  1.657828350  1.472695232
 C -7.536039211  2.818055221  2.895639250
 C -8.468631635  3.491384071  3.687157985
 H -7.884659865  2.118986948  2.140887066
 C -8.037922127  4.389892334  4.664843670
 H -9.532144139  3.315825001  3.545115602
 C -6.674943974  4.618286811  4.855800165
 H -8.765115114  4.913009225  5.281201855
 C -5.738742598  3.946659997  4.069734882
 H -6.338621183  5.317300022  5.617509018
 H -4.676180764  4.125749765  4.224548287
 C -1.664135442 -1.885091799 -1.731963967
 O -1.351790703 -3.073749780 -1.729866509
 N -2.719583470 -1.354301232 -2.462182605
 H -2.993322794 -0.386248024 -2.382505424
 N -3.440362792 -2.169279702 -3.283726313
 C -4.359599353 -1.593939505 -3.989335542
 C -5.203715198 -2.360743292 -4.926108516
 H -4.543928170 -0.506292055 -3.929939297
 C -6.132528086 -1.679033188 -5.717603897
 C -6.929940744 -2.392356497 -6.614768980
 H -6.241176523 -0.600338399 -5.650546170
 C -6.800287697 -3.778509866 -6.717072471
 H -7.652086600 -1.869534901 -7.237038064
 C -5.873664196 -4.456563620 -5.924639598
 H -7.421241492 -4.332814780 -7.416730089
 C -5.072704505 -3.748906984 -5.028458879
 H -5.771505739 -5.535990525 -6.004226486
 H -4.348839624 -4.281956025 -4.414491176
 C  1.664135442  1.885091799 -1.731963967
 O  1.351790703  3.073749780 -1.729866509
 N  2.719583470  1.354301232 -2.462182605
 H  2.993322794  0.386248024 -2.382505424
 N  3.440362792  2.169279702 -3.283726313
 C  4.359599353  1.593939505 -3.989335542
 C  5.203715198  2.360743292 -4.926108516
 H  4.543928170  0.506292055 -3.929939297
 C  6.132528086  1.679033188 -5.717603897
 C  6.929940744  2.392356497 -6.614768980
 H  6.241176523  0.600338399 -5.650546170
 C  6.800287697  3.778509866 -6.717072471
 H  7.652086600  1.869534901 -7.237038064
 C  5.873664196  4.456563620 -5.924639598
 H  7.421241492  4.332814780 -7.416730089
 C  5.072704505  3.748906984 -5.028458879
 H  5.771505739  5.535990525 -6.004226486
 H  4.348839624  4.281956025 -4.414491176
