      99
<yaff.system.System object at 0x7fbf6077b190>
 N  1.048041667 -2.362353333 -0.827760000
 C  0.687191667 -1.111843333 -0.380820000
 C -0.707988333 -1.156633333 -0.350020000
 N -1.140578333 -2.423203333 -0.704650000
 C -1.452748333 -0.004173333  0.016440000
 C -2.937038333  0.018916667  0.013290000
 C -0.690808333  1.125556667  0.389200000
 H -1.190148333  2.031256667  0.727650000
 C  0.707131667  1.132496667  0.363290000
 H  1.218751667  2.041706667  0.676780000
 C  1.457221667  0.014596667 -0.038090000
 C  2.930271667  0.035566667 -0.088570000
 C -3.644438333  1.216186667 -0.227900000
 C  3.614231667  1.150886667 -0.607650000
 C  3.709801667 -1.028743333  0.397570000
 C -3.714278333 -1.126953333  0.257540000
 C -5.114658333 -1.083173333  0.260860000
 H -3.237768333 -2.085023333  0.454110000
 C  5.107441667 -0.993503333  0.339110000
 H  3.237601667 -1.893393333  0.858000000
 C -5.778958333  0.116916667  0.034260000
 H -5.680408333 -1.992973333  0.442850000
 C -5.043148333  1.269606667 -0.208850000
 H -3.111798333  2.138136667 -0.449260000
 C  5.011001667  1.198966667 -0.646670000
 H  3.058831667  2.004406667 -0.992550000
 C  5.757241667  0.121996667 -0.180560000
 H  5.688571667 -1.831683333  0.715280000
 H  5.511931667  2.079726667 -1.040580000
 H -5.551588333  2.212836667 -0.390060000
 C -0.066158333 -3.157953333 -0.916690000
 H  1.993111667 -2.657013333 -1.011250000
 C -0.040848333 -4.599613333 -1.196060000
 C -1.251718333 -5.281883333 -1.390290000
 C -1.273518333 -6.658563333 -1.631550000
 H -2.193238333 -4.735723333 -1.348080000
 C  1.151281667 -5.339883333 -1.242140000
 C -0.081488333 -7.375973333 -1.679350000
 H -2.223038333 -7.167013333 -1.777580000
 C  1.130121667 -6.718103333 -1.483600000
 H  2.116521667 -4.871123333 -1.078620000
 H  2.060961667 -7.279213333 -1.512890000
 H -11.788307014 -2.328247851  0.430658837
 C -12.347745307 -1.397977122  0.343750942
 C -13.743928368 -1.442159983  0.394995983
 H -14.252245284 -2.395118314  0.520367014
 C -14.482088199 -0.266938563  0.286863259
 H -15.568227976 -0.299606241  0.325882500
 C -13.825470296  0.951468011  0.134338854
 H -14.402345503  1.870329346  0.055651469
 C -12.427476738  0.998981624  0.087601727
 H -11.970869452  1.976624586 -0.013743390
 C -11.670814687 -0.177812274  0.183772403
 C -10.173223000 -0.188535393  0.206329701
 O -9.580391415 -1.116822349  0.752303277
 C -9.420632828  0.892483994 -0.492438721
 C -8.081152864  0.948087691 -0.515418830
 H -9.963990130  1.663576038 -1.016726409
 N -7.183129758  0.083094118  0.049344031
 H -7.627445874  1.774057818 -1.053617897
 H -7.615320537 -0.710283137  0.531652672
 H  11.788307014  2.328247851 -0.430658837
 C  12.347745307  1.397977122 -0.343750942
 C  13.743928368  1.442159983 -0.394995983
 H  14.252245284  2.395118314 -0.520367014
 C  14.482088199  0.266938563 -0.286863259
 H  15.568227976  0.299606241 -0.325882500
 C  13.825470296 -0.951468011 -0.134338854
 H  14.402345503 -1.870329346 -0.055651469
 C  12.427476738 -0.998981624 -0.087601727
 H  11.970869452 -1.976624586  0.013743390
 C  11.670814687  0.177812274 -0.183772403
 C  10.173223000  0.188535393 -0.206329701
 O  9.580391415  1.116822349 -0.752303277
 C  9.420632828 -0.892483994  0.492438721
 C  8.081152864 -0.948087691  0.515418830
 H  9.963990130 -1.663576038  1.016726409
 N  7.183129758 -0.083094118 -0.049344031
 H  7.627445874 -1.774057818  1.053617897
 H  7.615320537  0.710283137 -0.531652672
 H  2.445354807 -13.206358500 -3.046794944
 C  1.517482191 -13.771488164 -3.121686111
 C  1.580624433 -15.139644401 -3.401090635
 H  2.545705111 -15.621154488 -3.538934321
 C  0.408949077 -15.884521587 -3.501354519
 H  0.456255930 -16.948740672 -3.719274444
 C -0.823814733 -15.264120351 -3.316095134
 H -1.739002852 -15.847582852 -3.388793674
 C -0.889567987 -13.895369687 -3.031444434
 H -1.874904836 -13.470694656 -2.878770868
 C  0.281663585 -13.129709464 -2.938648068
 C  0.283303266 -11.677227064 -2.573002244
 O  1.279698816 -11.183779523 -2.048637354
 C -0.898714496 -10.833610302 -2.911258006
 C -0.968313238 -9.527531205 -2.616063435
 H -1.736867283 -11.276991714 -3.426632148
 N -0.034089752 -8.744154265 -1.993838782
 H -1.871107524 -9.000022466 -2.906635161
 H  0.827708782 -9.239475082 -1.747224632
