      93
<yaff.system.System object at 0x7f62ed884210>
 C  4.027462051 -3.893913718  0.310066179
 C  2.672148051 -4.262318718  0.319743179
 C  1.678672051 -3.300991718  0.229140179
 C  2.003629051 -1.937063718  0.160580179
 C  3.355470051 -1.566913718  0.187692179
 C  4.354395051 -2.527048718  0.261396179
 C  0.941359051 -0.909939718  0.077892179
 N  1.312939051  0.376982282  0.037767179
 C  0.318010051  1.271410282 -0.038992821
 N -0.981642949  0.947974282 -0.075637821
 C -1.260558949 -0.362144718 -0.031325821
 N -0.332144949 -1.325265718  0.045418179
 C  0.676958051  2.706621282 -0.083768821
 C -0.317350949  3.691753282 -0.190296821
 C  0.018704051  5.034651282 -0.245812821
 C  1.360665051  5.440586282 -0.161808821
 C  2.359252051  4.454275282 -0.075031821
 C  2.018771051  3.109724282 -0.036659821
 C -2.682392949 -0.770638718 -0.066681821
 C -3.700649949  0.190456282 -0.135975821
 C -5.035099949 -0.188277718 -0.165449821
 C -5.391426949 -1.548090718 -0.125807821
 C -4.369830949 -2.511469718 -0.093439821
 C -3.039347949 -2.128166718 -0.047251821
 H  0.636350051 -3.590416718  0.220005179
 H  2.423007051 -5.314639718  0.386235179
 H  5.392662051 -2.220384718  0.316972179
 H  3.609547051 -0.515584718  0.158735179
 H -1.353435949  3.384405282 -0.238761821
 H -0.746394949  5.795773282 -0.341783821
 H  3.403496051  4.745260282 -0.073396821
 H  2.789534051  2.352613282  0.021499179
 H -3.429036949  1.237058282 -0.175087821
 H -5.807122949  0.567416282 -0.254919821
 H -4.647001949 -3.558870718 -0.092107821
 H -2.256291949 -2.873402718 -0.005591821
 H  10.110609338 -6.177105149  0.484963558
 C  9.883124224 -7.234680041  0.610317806
 C  10.938850030 -8.144821690  0.715153484
 H  11.966156234 -7.791314582  0.671469963
 C  10.674601753 -9.501964497  0.876566801
 H  11.494651472 -10.211355835  0.957632701
 C  9.357034481 -9.948006662  0.939719126
 H  9.150839468 -11.007894480  1.071644444
 C  8.298203218 -9.038206830  0.839876682
 H  7.294524411 -9.440240216  0.914340194
 C  8.548753469 -7.669454814  0.665599240
 C  7.476010756 -6.629712340  0.545414073
 O  7.776570524 -5.437764413  0.532107330
 C  6.053121563 -7.059878394  0.428727735
 C  5.033790396 -6.191187493  0.364179144
 H  5.819318151 -8.112377863  0.380994006
 N  5.078311443 -4.823225710  0.381924787
 H  4.033925358 -6.604156981  0.277801906
 H  6.025639754 -4.437667746  0.434575431
 H  0.314003803  11.833615071 -0.692766684
 C  1.336256614  12.178048497 -0.543459547
 C  1.595779738  13.551437439 -0.562324369
 H  0.782618383  14.254968785 -0.723711538
 C  2.893845483  14.017311935 -0.373368601
 H  3.097556968  15.085284450 -0.388389658
 C  3.929993326  13.112052399 -0.159293467
 H  4.943326359  13.476627334 -0.005917649
 C  3.672024447  11.736663305 -0.135111050
 H  4.513793801  11.080777872  0.054059400
 C  2.371412988  11.251911206 -0.335249432
 C  2.008871819  9.797670316 -0.329491879
 O  0.827624609  9.460373784 -0.375743173
 C  3.093606818  8.775732974 -0.281886804
 C  2.849694861  7.458406492 -0.227257813
 H  4.124348698  9.094777924 -0.303776890
 N  1.641078175  6.816023529 -0.212894458
 H  3.708116756  6.795074928 -0.198309515
 H  0.834356913  7.444414027 -0.269322729
 H -10.402531274 -5.681163545 -0.359849637
 C -11.213138021 -4.956534643 -0.298551417
 C -12.532752872 -5.417531932 -0.300412701
 H -12.734633543 -6.484161600 -0.361885524
 C -13.586775678 -4.511629654 -0.222342254
 H -14.613871338 -4.868504817 -0.224321043
 C -13.322080493 -3.147302777 -0.135890108
 H -14.145799365 -2.439979375 -0.069079281
 C -12.001618356 -2.683449959 -0.128947371
 H -11.855882022 -1.613125770 -0.041118802
 C -10.929721256 -3.583256444 -0.218474097
 C -9.488449534 -3.172151486 -0.222262259
 O -8.607101015 -4.027293764 -0.165609126
 C -9.143211961 -1.724239121 -0.309629250
 C -7.880741338 -1.274154233 -0.271973548
 H -9.932375357 -0.996446296 -0.420247581
 N -6.722526862 -1.995255534 -0.161662113
 H -7.733416459 -0.201474315 -0.345377163
 H -6.864698895 -3.008685536 -0.121603334
