      78
<yaff.system.System object at 0x7eff68378ed0>
 C -0.000001000 -0.000001000  1.760854000
 C -0.000001000 -0.000001000 -1.760853000
 H  0.583501000 -0.548807000 -2.343561000
 H -0.583501000  0.548807000 -2.343561000
 C  0.925717000 -0.871783000  0.897399000
 C -0.925717000  0.871783000  0.897399000
 C -0.871783000 -0.925717000 -0.897399000
 C  0.871783000  0.925717000 -0.897399000
 C  1.773370000  0.051568000 -0.002829000
 C -1.773370000 -0.051569000 -0.002829000
 C  0.051568000 -1.773370000  0.002829000
 C -0.051569000  1.773370000  0.002829000
 H  2.340312000  0.633966000  0.562907000
 H -2.340313000 -0.633966000  0.562907000
 H  0.633966000 -2.340313000 -0.562907000
 H -0.633966000  2.340312000 -0.562907000
 H  2.368699000 -0.498341000 -0.571393000
 H -2.368700000  0.498341000 -0.571393000
 H -0.498341000 -2.368700000  0.571393000
 H  0.498341000  2.368699000  0.571393000
 H -0.548807000 -0.583501000  2.343561000
 H  0.548807000  0.583501000  2.343561000
 C  5.396099217 -3.948611241  4.375896999
 C  5.743473450 -3.813360981  3.030423046
 C  4.255642790 -3.308576578  4.859509084
 C  3.454818785 -2.554661028  4.005514005
 C  3.790900710 -2.430240117  2.647538281
 C  4.959363324 -3.046486928  2.175873010
 C  1.762542002 -1.692693938  1.778798425
 N  3.038496456 -1.667198449  1.739393087
 H  6.635333085 -4.298204219  2.649347605
 H  3.992738871 -3.387680510  5.908641193
 H  2.588099664 -2.031868154  4.393694190
 H  5.226176225 -2.920899422  1.133179141
 H  1.220519931 -2.350159780  2.472802530
 H  6.017450041 -4.533797868  5.043887497
 C -5.396098928  3.948613688  4.375895206
 C -5.743472419  3.813364162  3.030420989
 C -4.255643324  3.308577940  4.859507798
 C -3.454819390  2.554662029  4.005512971
 C -3.790900556  2.430241847  2.647536993
 C -4.959362373  3.046489762  2.175871190
 C -1.762541895  1.692694318  1.778798172
 N -3.038496345  1.667199875  1.739392018
 H -6.635331421  4.298208250  2.649345146
 H -3.992740005  3.387681306  5.908640099
 H -2.588100937  2.031868323  4.393693529
 H -5.226174716  2.920902823  1.133177110
 H -1.220519731  2.350159489  2.472802841
 H -6.017449701  4.533800593  5.043885508
 C -4.716494146 -4.039174695 -5.029676206
 C -5.362936554 -3.005221598 -4.349738815
 C -3.339170593 -4.201579848 -4.885557233
 C -2.612434471 -3.352727206 -4.054702771
 C -3.261396873 -2.322165244 -3.355188988
 C -4.640968937 -2.141757474 -3.533422250
 C -1.654494333 -1.830044369 -1.746275184
 N -2.583622925 -1.419084658 -2.519641040
 H -6.431834346 -2.864999711 -4.465930032
 H -2.825428943 -4.986292002 -5.429938016
 H -1.537077910 -3.462442161 -3.972427762
 H -5.127993632 -1.326024752 -3.012309092
 H -1.401742934 -2.896465183 -1.665316330
 H -5.278605461 -4.701301800 -5.678020333
 C  4.716494146  4.039174695 -5.029676206
 C  5.362936554  3.005221598 -4.349738815
 C  3.339170593  4.201579848 -4.885557233
 C  2.612434471  3.352727206 -4.054702771
 C  3.261396873  2.322165244 -3.355188988
 C  4.640968937  2.141757474 -3.533422250
 C  1.654494333  1.830044369 -1.746275184
 N  2.583622925  1.419084658 -2.519641040
 H  6.431834346  2.864999711 -4.465930032
 H  2.825428943  4.986292002 -5.429938016
 H  1.537077910  3.462442161 -3.972427762
 H  5.127993632  1.326024752 -3.012309092
 H  1.401742934  2.896465183 -1.665316330
 H  5.278605461  4.701301800 -5.678020333
