     102
<yaff.system.System object at 0x7f52bc892850>
 C -0.673043696 -0.061281087  0.099838696
 C  0.676216304  0.084438913 -0.077921304
 C -1.445563696  0.859668913  0.987758696
 C -1.208593696  0.910808913  2.368608696
 H -0.435593696  0.291168913  2.815748696
 C -1.956453696  1.762468913  3.184708696
 H -1.756043696  1.803278913  4.251888696
 C -2.958213696  2.558248913  2.631708696
 C -3.215433696  2.502618913  1.263248696
 H -4.001643696  3.116068913  0.831638696
 C -2.465153696  1.655188913  0.445338696
 H -2.681203696  1.618718913 -0.619611304
 C  1.423956304  1.217358913  0.545288696
 C  1.186576304  2.544388913  0.160958696
 H  0.432056304  2.771628913 -0.587751304
 C  1.910456304  3.588888913  0.739918696
 H  1.711366304  4.615018913  0.443058696
 C  2.886286304  3.315958913  1.697168696
 C  3.142086304  1.999178913  2.075248696
 H  3.907026304  1.784298913  2.816488696
 C  2.417466304  0.953908913  1.499138696
 H  2.631376304 -0.068851087  1.799648696
 C -1.412513696 -1.154241087 -0.600071304
 C -1.922953696 -2.232601087  0.134698696
 H -1.770443696 -2.283151087  1.209878696
 C -2.626883696 -3.253351087 -0.507091304
 H -3.013833696 -4.089711087  0.068518696
 C -2.834543696 -3.198741087 -1.884751304
 C -2.343603696 -2.122491087 -2.622201304
 H -2.507323696 -2.077791087 -3.695421304
 C -1.638713696 -1.101381087 -1.982691304
 H -1.261323696 -0.266561087 -2.567421304
 C  1.439886304 -0.894691087 -0.907871304
 C  1.681336304 -2.196721087 -0.447761304
 H  1.299246304 -2.515401087  0.518518696
 C  2.406656304 -3.098111087 -1.228831304
 H  2.581246304 -4.108341087 -0.868861304
 C  2.903116304 -2.703191087 -2.470121304
 C  2.679966304 -1.406181087 -2.930431304
 H  3.069876304 -1.097111087 -3.896341304
 C  1.955636304 -0.502771087 -2.150401304
 H  1.790596304  0.507088913 -2.517471304
 C -4.770264446  4.519629168  5.163535341
 C -5.022051510  5.154283186  6.366134655
 H -4.298019959  5.131295498  7.174640038
 C -6.242065078  5.824994391  6.495625802
 H -6.479963724  6.338428481  7.425710010
 C -7.168868902  5.844707831  5.434359647
 H -8.113262175  6.372493735  5.556103879
 C -6.887898272  5.195004988  4.228547932
 H -7.591974970  5.201810118  3.402305752
 C -5.673716599  4.540885007  4.126987428
 C -5.097486243  3.786304352  3.019515459
 C -3.609231730  3.752701892  4.725601128
 N -3.856070804  3.336638042  3.430251865
 O -2.657253807  3.597850358  5.470192454
 O -5.718145515  3.647608296  1.980225195
 C  5.515019381  5.371478127  3.248068356
 C  6.673918850  5.677972277  3.937590592
 H  7.310773070  4.896031660  4.339357504
 C  6.990139057  7.031041532  4.093356299
 H  7.893960530  7.316154016  4.629159044
 C  6.151503369  8.031892085  3.563612822
 H  6.415924217  9.079599355  3.696463727
 C  4.985726987  7.693423896  2.869750526
 H  4.330223611  8.453393428  2.455977545
 C  4.697834868  6.348159154  2.729018435
 C  3.578206134  5.686263448  2.068523829
 C  4.924563985  4.078107240  2.921702052
 N  3.763942261  4.323493630  2.211271829
 O  5.473166433  3.046305668  3.266778964
 O  2.700917373  6.343888254  1.537042103
 C -5.202658654 -5.890181730 -2.714730457
 C -6.098856919 -6.925144994 -2.519519621
 H -6.352507457 -7.266327022 -1.520676638
 C -6.663048192 -7.509795487 -3.657468035
 H -7.373855041 -8.327210691 -3.548596686
 C -6.322245746 -7.052335341 -4.945964720
 H -6.772780309 -7.521713339 -5.818868595
 C -5.413479124 -6.003108756 -5.114211483
 H -5.141569598 -5.639970173 -6.100437636
 C -4.871884277 -5.442152907 -3.972095824
 C -3.915183443 -4.351773009 -3.818073936
 C -4.461060996 -5.088344259 -1.747750430
 N -3.704565671 -4.177987173 -2.462546321
 O -4.592782326 -5.287558896 -0.552919803
 O -3.456334976 -3.792324318 -4.798407566
 C  4.908204395 -5.349940114 -4.056005260
 C  5.382829364 -6.619808101 -4.329124267
 H  5.004519430 -7.486487233 -3.796038952
 C  6.364747924 -6.740020335 -5.317273823
 H  6.765303519 -7.721854635 -5.563898206
 C  6.842565332 -5.603305420 -5.999336521
 H  7.607747521 -5.718939254 -6.765093210
 C  6.344163351 -4.330862447 -5.703491089
 H  6.702453592 -3.446237321 -6.220707615
 C  5.372788354 -4.240895678 -4.723306814
 C  4.666060013 -3.077767382 -4.198335224
 C  3.899918969 -4.904006386 -3.100775235
 N  3.791421970 -3.531429743 -3.228172746
 O  3.326394053 -5.710300627 -2.389708448
 O  4.913368218 -1.963264794 -4.624130261
