      73
<yaff.system.System object at 0x7eff6837e1d0>
Si -0.000000000  0.000000000 -0.000000000
 C -0.334711000 -3.282421000 -2.523411000
 C -3.282421000  0.334711000  2.523412000
 C  0.334711000  3.282422000 -2.523411000
 C  3.282421000 -0.334711000  2.523412000
 C -1.442915000 -2.894269000 -1.866366000
 C -2.894268000  1.442915000  1.866365000
 C  1.442915000  2.894269000 -1.866366000
 C  2.894269000 -1.442914000  1.866365000
 C -1.355721000 -1.850757000 -1.055712000
 C -1.850756000  1.355721000  1.055713000
 C  1.355722000  1.850757000 -1.055712000
 C  1.850757000 -1.355721000  1.055713000
 C -0.132197000 -1.201023000 -0.847056000
 C -1.201023000  0.132197000  0.847056000
 C  0.132198000  1.201023000 -0.847056000
 C  1.201024000 -0.132198000  0.847056000
 C  0.964755000 -1.566674000 -1.552049000
 C -1.566674000 -0.964756000  1.552050000
 C -0.964756000  1.566674000 -1.552049000
 C  1.566675000  0.964754000  1.552050000
 C  0.874751000 -2.604561000 -2.363589000
 C -2.604559000 -0.874752000  2.363589000
 C -0.874750000  2.604559000 -2.363589000
 C  2.604560000  0.874750000  2.363589000
 H -2.387983000 -3.392116000 -1.994223000
 H -3.392115000  2.387984000  1.994223000
 H  2.387983000  3.392116000 -1.994223000
 H  3.392116000 -2.387983000  1.994223000
 H -2.258597000 -1.552610000 -0.616202000
 H -1.552610000  2.258597000  0.616202000
 H  2.258598000  1.552609000 -0.616202000
 H  1.552610000 -2.258598000  0.616202000
 H  1.907010000 -1.051950000 -1.461484000
 H -1.051950000 -1.907011000  1.461484000
 H -1.907010000  1.051952000 -1.461484000
 H  1.051951000  1.907009000  1.461484000
 H  1.760751000 -2.888643000 -2.847495000
 H -2.888643000 -1.760751000  2.847496000
 H -1.760749000  2.888644000 -2.847495000
 H  2.888643000  1.760751000  2.847496000
 B -0.459514354 -4.506111948 -3.464159955
 O -1.668688360 -5.167855689 -3.610950386
 B -1.785360479 -6.254250784 -4.444150895
 O  0.635389805 -4.966029308 -4.179150563
 B  0.530626081 -6.051377308 -5.015292921
 O -0.682471079 -6.693112739 -5.145085501
 H -2.825675883 -6.810591311 -4.559637032
 H  1.475486211 -6.433819319 -5.620342880
 B -4.506135179  0.459505235  3.464131946
 O -5.167684283  1.668756232  3.611165257
 B -6.253973180  1.785470416  4.444498328
 O -4.965744409 -0.635277003  4.179507282
 B -6.050993302 -0.530474020  5.015773349
 O -6.692785376  0.682600747  5.145495131
 H -6.809780492  2.825996718  4.560650015
 H -6.432815578 -1.475088995  5.621597010
 B  0.459514259  4.506113161 -3.464159691
 O  1.668687781  5.167858120 -3.610948614
 B  1.785359815  6.254253410 -4.444148881
 O -0.635389504  4.966029498 -4.179151563
 B -0.530625861  6.051377681 -5.015293694
 O  0.682470815  6.693114332 -5.145084764
 H  2.825674802  6.810594984 -4.559633723
 H -1.475485649  6.433818808 -5.620344746
 B  4.506134677 -0.459505170  3.464132609
 O  5.167682695 -1.668756555  3.611167614
 B  6.253971142 -1.785470682  4.444501279
 O  4.965744531  0.635277517  4.179506857
 B  6.050992983  0.530474593  5.015773505
 O  6.692783975 -0.682600565  5.145496977
 H  6.809777524 -2.825997320  4.560654419
 H  6.432815802  1.475089955  5.621596221
