      32
<yaff.system.System object at 0x7f193a16d790>
 C -0.000013000 -1.415145000  0.000000000
 C  0.000013000  1.415145000  0.000000000
 C -1.206999000 -0.694755000  0.000000000
 C  1.206999000  0.694755000  0.000000000
 C -1.206984000  0.694770000  0.000000000
 C  1.206984000 -0.694770000  0.000000000
 H  2.148535000 -1.233078000  0.000000000
 H -2.148535000  1.233078000  0.000000000
 H  2.148565000  1.233036000  0.000000000
 H -2.148565000 -1.233036000  0.000000000
 N  0.005816918 -2.873075174  0.016748070
 B  1.190349577 -3.677365699  0.576363721
 B -1.171971090 -3.699474859 -0.524598686
 H  2.141953407 -3.161220054  1.030418688
 N  1.212715281 -5.202933391  0.598682250
 H -2.128083630 -3.201513855 -0.989358086
 N -1.180965926 -5.225315717 -0.514320838
 B  0.019319769 -5.962662899  0.049832927
 H  2.034080165 -5.716900958  0.988927811
 H -1.997625581 -5.754678343 -0.893698488
 H  0.024693248 -7.143909033  0.062016797
 N -0.005816918  2.873075174 -0.016748070
 B -1.190349577  3.677365699 -0.576363721
 B  1.171971090  3.699474859  0.524598686
 H -2.141953407  3.161220054 -1.030418688
 N -1.212715281  5.202933391 -0.598682250
 H  2.128083630  3.201513855  0.989358086
 N  1.180965926  5.225315717  0.514320838
 B -0.019319769  5.962662899 -0.049832927
 H -2.034080165  5.716900958 -0.988927811
 H  1.997625581  5.754678343  0.893698488
 H -0.024693248  7.143909033 -0.062016797
