      74
<yaff.system.System object at 0x7eff68378e90>
 C -0.000001000 -0.000001000  1.760854000
 C -0.000001000 -0.000001000 -1.760853000
 H  0.583501000 -0.548807000 -2.343561000
 H -0.583501000  0.548807000 -2.343561000
 C  0.925717000 -0.871783000  0.897399000
 C -0.925717000  0.871783000  0.897399000
 C -0.871783000 -0.925717000 -0.897399000
 C  0.871783000  0.925717000 -0.897399000
 C  1.773370000  0.051568000 -0.002829000
 C -1.773370000 -0.051569000 -0.002829000
 C  0.051568000 -1.773370000  0.002829000
 C -0.051569000  1.773370000  0.002829000
 H  2.340312000  0.633966000  0.562907000
 H -2.340313000 -0.633966000  0.562907000
 H  0.633966000 -2.340313000 -0.562907000
 H -0.633966000  2.340312000 -0.562907000
 H  2.368699000 -0.498341000 -0.571393000
 H -2.368700000  0.498341000 -0.571393000
 H -0.498341000 -2.368700000  0.571393000
 H  0.498341000  2.368699000  0.571393000
 H -0.548807000 -0.583501000  2.343561000
 H  0.548807000  0.583501000  2.343561000
 H  4.043821435 -5.016047690  5.486035078
 C  3.900865452 -4.300691498  4.677882356
 C  5.021449801 -3.750429806  4.041611514
 H  6.019279879 -4.043786454  4.362265205
 C  4.880504548 -2.824751547  2.996063471
 H  5.744860583 -2.396123395  2.501528990
 C  3.585115580 -2.462764094  2.605257183
 N  3.142474178 -1.597660414  1.637887131
 C  2.504619615 -3.029021476  3.260217249
 O  1.367255247 -2.519752771  2.707047187
 C  2.599801922 -3.949151422  4.296912193
 H  1.722045367 -4.362634434  4.776763616
 C  1.824954313 -1.660745833  1.736895487
 H -4.043820984  5.016048669  5.486034500
 C -3.900865069  4.300692633  4.677881628
 C -5.021449461  3.750432062  4.041609892
 H -6.019279504  4.043789409  4.362263050
 C -4.880504295  2.824754041  2.996061627
 H -5.744860364  2.396126755  2.501526454
 C -3.585115373  2.462765671  2.605256036
 N -3.142474059  1.597661959  1.637885973
 C -2.504619364  3.029021959  3.260216976
 O -1.367255058  2.519752520  2.707047462
 C -2.599801582  3.949151633  4.296912170
 H -1.722044997  4.362633773  4.776764287
 C -1.824954206  1.660746279  1.736895184
 H -3.967654951 -5.896433626 -4.593429199
 C -3.727099419 -4.914458479 -4.189523810
 C -4.444358029 -3.795210468 -4.632425352
 H -5.231534051 -3.920413359 -5.373519086
 C -4.165112234 -2.511955874 -4.137252707
 H -4.717223350 -1.643249689 -4.477723970
 C -3.145322063 -2.378968715 -3.186390220
 N -2.654238688 -1.275396911 -2.537462644
 C -2.460121906 -3.509920635 -2.775853811
 O -1.526061559 -3.123204713 -1.861014207
 C -2.705853886 -4.796830059 -3.238363405
 H -2.140234068 -5.649243982 -2.884602352
 C -1.695949931 -1.762745159 -1.766868482
 H  3.967654951  5.896433626 -4.593429199
 C  3.727099419  4.914458479 -4.189523810
 C  4.444358029  3.795210468 -4.632425352
 H  5.231534051  3.920413359 -5.373519086
 C  4.165112234  2.511955874 -4.137252707
 H  4.717223350  1.643249689 -4.477723970
 C  3.145322063  2.378968715 -3.186390220
 N  2.654238688  1.275396911 -2.537462644
 C  2.460121906  3.509920635 -2.775853811
 O  1.526061559  3.123204713 -1.861014207
 C  2.705853886  4.796830059 -3.238363405
 H  2.140234068  5.649243982 -2.884602352
 C  1.695949931  1.762745159 -1.766868482
