      40
<yaff.system.System object at 0x7f52bc889d90>
 C  0.698355000 -1.162038000  0.000000000
 C  1.458232000 -0.000028000  0.000000000
 C  0.698390000  1.162000000  0.000000000
 C -0.698642000  1.162030000  0.000000000
 C -1.458528000  0.000030000  0.000000000
 C -0.698679000 -1.161989000  0.000000000
 H  2.539446000 -0.000040000  0.000000000
 H -2.539742000  0.000043000  0.000000000
 C -1.132474219  2.551069088  0.002452522
 C  1.131759329  2.551653288  0.004694686
 N -0.000555866  3.345265844  0.007821995
 O  2.320745933  2.817787513  0.016553678
 O -2.321522041  2.816712581 -0.010873866
 C -0.000929859  4.776909042  0.018109317
 C  1.154583194  5.516887892 -0.285500427
 H  2.091397852  5.036519394 -0.550788722
 C  1.156709549  6.918176709 -0.273387072
 H  2.069371135  7.457263568 -0.515876054
 C -0.000051092  7.616974787  0.045306300
 H  0.000476917  8.703403040  0.056403362
 C -1.157468918  6.912949232  0.349730245
 H -2.069676872  7.447845794  0.602945519
 C -1.156306189  5.511685812  0.334668267
 H -2.093414450  5.026946059  0.590794534
 C  1.132474219 -2.551069088 -0.002452522
 C -1.131759329 -2.551653288 -0.004694686
 N  0.000555866 -3.345265844 -0.007821995
 O -2.320745933 -2.817787513 -0.016553678
 O  2.321522041 -2.816712581  0.010873866
 C  0.000929859 -4.776909042 -0.018109317
 C -1.154583194 -5.516887892  0.285500427
 H -2.091397852 -5.036519394  0.550788722
 C -1.156709549 -6.918176709  0.273387072
 H -2.069371135 -7.457263568  0.515876054
 C  0.000051092 -7.616974787 -0.045306300
 H -0.000476917 -8.703403040 -0.056403362
 C  1.157468918 -6.912949232 -0.349730245
 H  2.069676872 -7.447845794 -0.602945519
 C  1.156306189 -5.511685812 -0.334668267
 H  2.093414450 -5.026946059 -0.590794534
