      36
<yaff.system.System object at 0x7eff68378f10>
 C -0.000013000 -1.415145000  0.000000000
 C  0.000013000  1.415145000  0.000000000
 C -1.206999000 -0.694755000  0.000000000
 C  1.206999000  0.694755000  0.000000000
 C -1.206984000  0.694770000  0.000000000
 C  1.206984000 -0.694770000  0.000000000
 H  2.148535000 -1.233078000  0.000000000
 H -2.148535000  1.233078000  0.000000000
 H  2.148565000  1.233036000  0.000000000
 H -2.148565000 -1.233036000  0.000000000
 H  1.167244000 -8.236946359 -0.231567383
 C  0.641212785 -7.285233932 -0.178498243
 C -0.758800909 -7.276641060 -0.121703714
 H -1.302629600 -8.219347257 -0.131560514
 C -1.474805496 -6.071431527 -0.052972897
 H -2.558035365 -6.060295395 -0.009535152
 C -0.750151155 -4.872848393 -0.044510818
 N -1.165238815 -3.567202352  0.011446804
 C  0.632229960 -4.925021377 -0.102752338
 O  1.099590904 -3.644311153 -0.085302203
 C  1.378958470 -6.094799206 -0.169472350
 H  2.460416244 -6.081015176 -0.213531876
 C -0.037877529 -2.875985794 -0.018838811
 H -1.167244000  8.236946359 -0.231567383
 C -0.641212785  7.285233932 -0.178498243
 C  0.758800909  7.276641060 -0.121703714
 H  1.302629600  8.219347257 -0.131560514
 C  1.474805496  6.071431527 -0.052972897
 H  2.558035365  6.060295395 -0.009535152
 C  0.750151155  4.872848393 -0.044510818
 N  1.165238815  3.567202352  0.011446804
 C -0.632229960  4.925021377 -0.102752338
 O -1.099590904  3.644311153 -0.085302203
 C -1.378958470  6.094799206 -0.169472350
 H -2.460416244  6.081015176 -0.213531876
 C  0.037877529  2.875985794 -0.018838811
