      97
<yaff.system.System object at 0x7eff6837e1d0>
Si -0.000000000  0.000000000 -0.000000000
 C -0.334711000 -3.282421000 -2.523411000
 C -3.282421000  0.334711000  2.523412000
 C  0.334711000  3.282422000 -2.523411000
 C  3.282421000 -0.334711000  2.523412000
 C -1.442915000 -2.894269000 -1.866366000
 C -2.894268000  1.442915000  1.866365000
 C  1.442915000  2.894269000 -1.866366000
 C  2.894269000 -1.442914000  1.866365000
 C -1.355721000 -1.850757000 -1.055712000
 C -1.850756000  1.355721000  1.055713000
 C  1.355722000  1.850757000 -1.055712000
 C  1.850757000 -1.355721000  1.055713000
 C -0.132197000 -1.201023000 -0.847056000
 C -1.201023000  0.132197000  0.847056000
 C  0.132198000  1.201023000 -0.847056000
 C  1.201024000 -0.132198000  0.847056000
 C  0.964755000 -1.566674000 -1.552049000
 C -1.566674000 -0.964756000  1.552050000
 C -0.964756000  1.566674000 -1.552049000
 C  1.566675000  0.964754000  1.552050000
 C  0.874751000 -2.604561000 -2.363589000
 C -2.604559000 -0.874752000  2.363589000
 C -0.874750000  2.604559000 -2.363589000
 C  2.604560000  0.874750000  2.363589000
 H -2.387983000 -3.392116000 -1.994223000
 H -3.392115000  2.387984000  1.994223000
 H  2.387983000  3.392116000 -1.994223000
 H  3.392116000 -2.387983000  1.994223000
 H -2.258597000 -1.552610000 -0.616202000
 H -1.552610000  2.258597000  0.616202000
 H  2.258598000  1.552609000 -0.616202000
 H  1.552610000 -2.258598000  0.616202000
 H  1.907010000 -1.051950000 -1.461484000
 H -1.051950000 -1.907011000  1.461484000
 H -1.907010000  1.051952000 -1.461484000
 H  1.051951000  1.907009000  1.461484000
 H  1.760751000 -2.888643000 -2.847495000
 H -2.888643000 -1.760751000  2.847496000
 H -1.760749000  2.888644000 -2.847495000
 H  2.888643000  1.760751000  2.847496000
 N -0.417131699 -4.351219845 -3.424899152
 C -0.993679796 -5.438452453 -3.084381205
 C -1.173305092 -6.567771172 -4.003312682
 C -1.793615434 -7.735674996 -3.539169601
 C -1.980820413 -8.823654835 -4.388362725
 C -1.548380372 -8.753405330 -5.711198511
 C -0.927901777 -7.592171760 -6.182459394
 C -0.740992149 -6.506299258 -5.337991676
 H -1.375486650 -5.588821823 -2.064752856
 H -2.129593248 -7.789599280 -2.508372273
 H -2.461825311 -9.722333983 -4.019566625
 H -1.692551059 -9.598621444 -6.374809249
 H -0.591936251 -7.539003649 -7.211927128
 H -0.262382483 -5.600164547 -5.688653310
 N -4.416898709  0.391155289  3.342911482
 C -4.557978980  1.341913617  4.183500491
 C -5.752755710  1.495649853  5.020718988
 C -5.814133054  2.553599580  5.937882148
 C -6.936098678  2.727362991  6.744649902
 C -8.008164362  1.843128930  6.641503441
 C -7.955040140  0.784384915  5.729482149
 C -6.838061185  0.609778058  4.923845454
 H -3.771103036  2.094407859  4.333860241
 H -4.978239558  3.241506840  6.017867875
 H -6.973690610  3.548934233  7.450771724
 H -8.883001903  1.975584172  7.268136959
 H -8.789913525  0.097192477  5.650384211
 H -6.782526635 -0.205250246  4.212680434
 N  0.417131712  4.351221012 -3.424898953
 C  0.993678319  5.438454162 -3.084380215
 C  1.173303588  6.567773147 -4.003311370
 C  1.793612213  7.735677545 -3.539167438
 C  1.980817122  8.823657650 -4.388360235
 C  1.548378732  8.753407839 -5.711196545
 C  0.927901857  7.592173696 -6.182458279
 C  0.740992302  6.506300928 -5.337990887
 H  1.375483805  5.588823816 -2.064751395
 H  2.129588741  7.789602067 -2.508369704
 H  2.461820684  9.722337243 -4.019563476
 H  1.692549370  9.598624160 -6.374807031
 H  0.591937614  7.539005348 -7.211926420
 H  0.262383957  5.600165774 -5.688653178
 N  4.416898315 -0.391155290  3.342912027
 C  4.557977427 -1.341912753  4.183502208
 C  5.752753673 -1.495649021  5.020721389
 C  5.814129735 -2.553597726  5.937885813
 C  6.936094871 -2.727361144  6.744654244
 C  8.008161348 -1.843128110  6.641507201
 C  7.955038407 -0.784385118  5.729484647
 C  6.838059940 -0.609778258  4.923847276
 H  3.771100783 -2.094406154  4.333862506
 H  4.978235623 -3.241504186  6.017871993
 H  6.973685811 -3.548931591  7.450777043
 H  8.882998513 -1.975583360  7.268141242
 H  8.789912406 -0.097193479  5.650386257
 H  6.782526379  0.205249260  4.212681279
