      54
<yaff.system.System object at 0x7eff68378ed0>
 C  1.214670000 -0.706990000 -0.100210000
 C -0.003630000 -1.377070000 -0.034780000
 O -0.065580000 -2.740060000 -0.060670000
 C -1.202870000 -0.677230000  0.059480000
 C -1.171390000  0.714080000  0.087980000
 O -2.318460000  1.447630000  0.179540000
 C  0.034640000  1.405600000  0.023800000
 C  1.221460000  0.684370000 -0.070160000
 O  2.430470000  1.313820000 -0.136030000
 H -3.072450000  0.835100000  0.215630000
 H  2.278920000  2.273550000 -0.105640000
 H  0.839910000 -3.087250000 -0.127960000
 N  2.451437453 -1.356063598 -0.204683747
 C  2.728155003 -2.342110499  0.557926132
 C  3.975810319 -3.106492317  0.452390721
 C  4.211877150 -4.158134869  1.348233040
 C  5.385684815 -4.903897984  1.271501463
 C  6.335481714 -4.603937594  0.296953612
 C  6.108338250 -3.555872996 -0.600548675
 C  4.938735514 -2.811759302 -0.526357875
 H  2.040225114 -2.660933029  1.353623345
 H  3.471630832 -4.390618008  2.107389829
 H  5.558607317 -5.715363532  1.969084404
 H  7.250308330 -5.182519797  0.234587151
 H  6.848263036 -3.323639896 -1.358231061
 H  4.748634355 -1.997364258 -1.214640643
 N -2.405507328 -1.394800387  0.035789734
 C -3.359009078 -1.080622131  0.824815309
 C -4.665627061 -1.747174577  0.802047797
 C -5.648379937 -1.358181195  1.722424891
 C -6.899427399 -1.970351976  1.723830595
 C -7.179136529 -2.978766905  0.803669721
 C -6.204156003 -3.373555966 -0.117795677
 C -4.956811620 -2.764213273 -0.121470008
 H -3.239298038 -0.293118401  1.582137258
 H -5.429291578 -0.572945484  2.439179536
 H -7.652661890 -1.662061653  2.439788251
 H -8.152015646 -3.457367646  0.802174833
 H -6.423229522 -4.158321936 -0.833094680
 H -4.191738473 -3.059004715 -0.829193114
 N  0.028149168  2.805595204 -0.018346537
 C  0.780237367  3.477364426  0.764931431
 C  0.870534265  4.940980138  0.723258969
 C  1.701391410  5.601641416  1.638363413
 C  1.810173193  6.990083444  1.621930185
 C  1.087661090  7.731362910  0.689023483
 C  0.255768373  7.080325807 -0.227300208
 C  0.146442719  5.696480054 -0.213198507
 H  1.394499526  2.983996150  1.531285876
 H  2.263345950  5.023317465  2.365054926
 H  2.455680657  7.491432069  2.333948554
 H  1.170074086  8.812346645  0.673630537
 H -0.305795039  7.658417391 -0.952531312
 H -0.493491336  5.178184603 -0.916736096
