      78
<yaff.system.System object at 0x7f52bc75f8d0>
 C -2.463128239 -0.679251457  0.000029144
 C -1.234677239 -1.426508457  0.000029144
 C  0.000025761 -0.711872457  0.000029144
 C  0.000031761  0.711864543  0.000029144
 C -1.234664239  1.426508543  0.000029144
 C -2.463119239  0.679254543  0.000029144
 C  1.234736761  1.426498543  0.000029144
 C  1.208491761  2.825807543  0.000029144
 C  0.000007761  3.538230543  0.000029144
 C -1.208455239  2.825823543  0.000029144
 C  1.234729761 -1.426516457  0.000029144
 C  2.463184761 -0.679261457  0.000029144
 C  2.463184761  0.679244543  0.000029144
 C  1.208514761 -2.825825457  0.000029144
 C  0.000033761 -3.538226457  0.000029144
 C -1.208451239 -2.825815457  0.000029144
 H -2.147875239  3.368900543  0.000029144
 H  2.147913761  3.368895543  0.000029144
 H -2.147873239 -3.368900457  0.000029144
 H  2.147936761 -3.368905457  0.000029144
 C -0.000077739  5.038230543 -0.000080841
 C  0.000037761 -5.038226457  0.000029144
 C  1.414252761 -5.538222457  0.000029144
 C -0.707067239 -5.538228457  1.224774144
 C -0.707067239 -5.538228457 -1.224715856
 C  0.707025261  5.538251543 -1.224819163
 C -1.414295022  5.538220543 -0.000074654
 C  0.707025544  5.538220543  1.224670346
 H  1.414255761 -6.608222457  0.000029144
 H  1.918654761 -5.181554457 -0.873621856
 H  1.918654761 -5.181554457  0.873680144
 H -0.707064239 -6.608228457  1.224774144
 H -0.202665239 -5.181560457  2.098425144
 H -1.715874239 -5.181564457  1.224774144
 H -0.707064239 -6.608228457 -1.224715856
 H -1.715874239 -5.181564457 -1.224715856
 H -0.202665239 -5.181560457 -2.098366856
 H  0.707017761  6.608251543 -1.224806173
 H  1.715833221  5.181592543 -1.224823805
 H  0.202625301  5.181592543 -2.098474805
 H  0.707017544  6.608220543  1.224684203
 H  0.202625544  5.181538543  2.098316773
 H  1.715833504  5.181560543  1.224665704
 H -1.414303022  6.608220543 -0.000060797
 H -1.918694982  5.181560543 -0.873730296
 H -1.918695022  5.181538543  0.873571773
 C -3.852195755 -1.132469062  0.002492117
 C -3.852774059  1.131764492  0.004729820
 N -4.646389538 -0.000548634  0.007864056
 O -4.118905124  2.320751811  0.016588041
 O -4.117842417 -2.321516220 -0.010830354
 C -6.078032676 -0.000918887  0.018159849
 C -6.818010320  1.154595490 -0.285447797
 H -6.337640957  2.091408377 -0.550740780
 C -8.219299059  1.156725510 -0.273326156
 H -8.758384982  2.069388019 -0.515813748
 C -8.918098258 -0.000032687  0.045373632
 H -10.004526444  0.000498167  0.056477120
 C -8.214073910 -1.157451742  0.349795694
 H -8.748971344 -2.069657806  0.603015932
 C -6.812810575 -1.156292683  0.334725424
 H -6.328071743 -2.093401699  0.590850671
 C  3.852195755  1.132469062 -0.002492117
 C  3.852774059 -1.131764492 -0.004729820
 N  4.646389538  0.000548634 -0.007864056
 O  4.118905124 -2.320751811 -0.016588041
 O  4.117842417  2.321516220  0.010830354
 C  6.078032676  0.000918887 -0.018159849
 C  6.818010320 -1.154595490  0.285447797
 H  6.337640957 -2.091408377  0.550740780
 C  8.219299059 -1.156725510  0.273326156
 H  8.758384982 -2.069388019  0.515813748
 C  8.918098258  0.000032687 -0.045373632
 H  10.004526444 -0.000498167 -0.056477120
 C  8.214073910  1.157451742 -0.349795694
 H  8.748971344  2.069657806 -0.603015932
 C  6.812810575  1.156292683 -0.334725424
 H  6.328071743  2.093401699 -0.590850671
