      66
<yaff.system.System object at 0x7eff68378f90>
 N  1.048041667 -2.362353333 -0.827760000
 C  0.687191667 -1.111843333 -0.380820000
 C -0.707988333 -1.156633333 -0.350020000
 N -1.140578333 -2.423203333 -0.704650000
 C -1.452748333 -0.004173333  0.016440000
 C -2.937038333  0.018916667  0.013290000
 C -0.690808333  1.125556667  0.389200000
 H -1.190148333  2.031256667  0.727650000
 C  0.707131667  1.132496667  0.363290000
 H  1.218751667  2.041706667  0.676780000
 C  1.457221667  0.014596667 -0.038090000
 C  2.930271667  0.035566667 -0.088570000
 C -3.644438333  1.216186667 -0.227900000
 C  3.614231667  1.150886667 -0.607650000
 C  3.709801667 -1.028743333  0.397570000
 C -3.714278333 -1.126953333  0.257540000
 C -5.114658333 -1.083173333  0.260860000
 H -3.237768333 -2.085023333  0.454110000
 C  5.107441667 -0.993503333  0.339110000
 H  3.237601667 -1.893393333  0.858000000
 C -5.778958333  0.116916667  0.034260000
 H -5.680408333 -1.992973333  0.442850000
 C -5.043148333  1.269606667 -0.208850000
 H -3.111798333  2.138136667 -0.449260000
 C  5.011001667  1.198966667 -0.646670000
 H  3.058831667  2.004406667 -0.992550000
 C  5.757241667  0.121996667 -0.180560000
 H  5.688571667 -1.831683333  0.715280000
 H  5.511931667  2.079726667 -1.040580000
 H -5.551588333  2.212836667 -0.390060000
 C -0.066158333 -3.157953333 -0.916690000
 H  1.993111667 -2.657013333 -1.011250000
 C -0.040848333 -4.599613333 -1.196060000
 C -1.251718333 -5.281883333 -1.390290000
 C -1.273518333 -6.658563333 -1.631550000
 H -2.193238333 -4.735723333 -1.348080000
 C  1.151281667 -5.339883333 -1.242140000
 C -0.081488333 -7.375973333 -1.679350000
 H -2.223038333 -7.167013333 -1.777580000
 C  1.130121667 -6.718103333 -1.483600000
 H  2.116521667 -4.871123333 -1.078620000
 H  2.060961667 -7.279213333 -1.512890000
 B -7.327163172  0.148252760  0.043416285
 O -8.014241690  1.331378223 -0.179499023
 B -9.387883935  1.365246012 -0.172446958
 O -8.058866013 -1.006070891  0.275145704
 B -9.432738979 -0.984286718  0.284541645
 O -10.093888927  0.204317440  0.060095442
 H -9.962155693  2.384316794 -0.364318425
 H -10.045457971 -1.979147593  0.484379793
 B  7.304682810  0.154763239 -0.229101433
 O  8.051976209 -0.916686501  0.234689485
 B  9.425257012 -0.893186860  0.194224949
 O  7.975483857  1.256414287 -0.736980935
 B  9.348369135  1.291144226 -0.782473863
 O  10.070053564  0.213447515 -0.315551407
 H  10.051427098 -1.816591474  0.594653360
 H  9.908632898  2.240064298 -1.219238357
 B -0.098185460 -8.885789695 -2.023122846
 O -1.295786686 -9.555284513 -2.220814465
 B -1.316758596 -10.894887734 -2.525958964
 O  1.084095428 -9.599996558 -2.140046427
 B  1.075425502 -10.939829492 -2.444779594
 O -0.128039965 -11.583987750 -2.637149567
 H -2.348422819 -11.454518109 -2.692063577
 H  2.094251479 -11.537980559 -2.541303880
