      38
<yaff.system.System object at 0x7f1939dfb950>
 C -0.000013000 -1.415145000  0.000000000
 C  0.000013000  1.415145000  0.000000000
 C -1.206999000 -0.694755000  0.000000000
 C  1.206999000  0.694755000  0.000000000
 C -1.206984000  0.694770000  0.000000000
 C  1.206984000 -0.694770000  0.000000000
 H  2.148535000 -1.233078000  0.000000000
 H -2.148535000  1.233078000  0.000000000
 H  2.148565000  1.233036000  0.000000000
 H -2.148565000 -1.233036000  0.000000000
 N  0.044721560 -2.814028910 -0.054107821
 C -0.686459698 -3.512774323  0.725355930
 C -0.736731348 -4.977911123  0.671430128
 C -1.546583701 -5.668828635  1.583014036
 C -1.617321976 -7.059543196  1.555015828
 C -0.877405275 -7.772809841  0.613948419
 C -0.066257447 -7.091473823 -0.298939494
 C  0.005143863 -5.705319006 -0.273313350
 H -1.311844265 -3.042938959  1.497481739
 H -2.122120645 -5.112302467  2.316067855
 H -2.246834408 -7.584412281  2.264400793
 H -0.930207369 -8.855478361  0.589545650
 H  0.508886275 -7.647790801 -1.030529967
 H  0.628644548 -5.163734674 -0.974058821
 N -0.044721560  2.814028910  0.054107821
 C  0.686459698  3.512774323 -0.725355930
 C  0.736731348  4.977911123 -0.671430128
 C  1.546583701  5.668828635 -1.583014036
 C  1.617321976  7.059543196 -1.555015828
 C  0.877405275  7.772809841 -0.613948419
 C  0.066257447  7.091473823  0.298939494
 C -0.005143863  5.705319006  0.273313350
 H  1.311844265  3.042938959 -1.497481739
 H  2.122120645  5.112302467 -2.316067855
 H  2.246834408  7.584412281 -2.264400793
 H  0.930207369  8.855478361 -0.589545650
 H -0.508886275  7.647790801  1.030529967
 H -0.628644548  5.163734674  0.974058821
