      74
<yaff.system.System object at 0x7eff6837e110>
 C -0.673043696 -0.061281087  0.099838696
 C  0.676216304  0.084438913 -0.077921304
 C -1.445563696  0.859668913  0.987758696
 C -1.208593696  0.910808913  2.368608696
 H -0.435593696  0.291168913  2.815748696
 C -1.956453696  1.762468913  3.184708696
 H -1.756043696  1.803278913  4.251888696
 C -2.958213696  2.558248913  2.631708696
 C -3.215433696  2.502618913  1.263248696
 H -4.001643696  3.116068913  0.831638696
 C -2.465153696  1.655188913  0.445338696
 H -2.681203696  1.618718913 -0.619611304
 C  1.423956304  1.217358913  0.545288696
 C  1.186576304  2.544388913  0.160958696
 H  0.432056304  2.771628913 -0.587751304
 C  1.910456304  3.588888913  0.739918696
 H  1.711366304  4.615018913  0.443058696
 C  2.886286304  3.315958913  1.697168696
 C  3.142086304  1.999178913  2.075248696
 H  3.907026304  1.784298913  2.816488696
 C  2.417466304  0.953908913  1.499138696
 H  2.631376304 -0.068851087  1.799648696
 C -1.412513696 -1.154241087 -0.600071304
 C -1.922953696 -2.232601087  0.134698696
 H -1.770443696 -2.283151087  1.209878696
 C -2.626883696 -3.253351087 -0.507091304
 H -3.013833696 -4.089711087  0.068518696
 C -2.834543696 -3.198741087 -1.884751304
 C -2.343603696 -2.122491087 -2.622201304
 H -2.507323696 -2.077791087 -3.695421304
 C -1.638713696 -1.101381087 -1.982691304
 H -1.261323696 -0.266561087 -2.567421304
 C  1.439886304 -0.894691087 -0.907871304
 C  1.681336304 -2.196721087 -0.447761304
 H  1.299246304 -2.515401087  0.518518696
 C  2.406656304 -3.098111087 -1.228831304
 H  2.581246304 -4.108341087 -0.868861304
 C  2.903116304 -2.703191087 -2.470121304
 C  2.679966304 -1.406181087 -2.930431304
 H  3.069876304 -1.097111087 -3.896341304
 C  1.955636304 -0.502771087 -2.150401304
 H  1.790596304  0.507088913 -2.517471304
 B -3.929971901  3.398649531  3.496241404
 O -3.747771879  3.507580037  4.866092229
 B -4.606851076  4.251775938  5.638261361
 O -5.002943745  4.059518726  2.918717383
 B -5.868507368  4.806572734  3.680819530
 O -5.666741503  4.900230943  5.041258383
 H -4.438927352  4.335774996  6.808668875
 H -6.782025118  5.366125346  3.173380661
 B  3.834775707  4.405607877  2.254875608
 O  4.792562302  4.092974109  3.206956987
 B  5.636816200  5.055668234  3.705500016
 O  3.745908948  5.716887792  1.814196194
 B  4.584756787  6.687974753  2.305535362
 O  5.529568923  6.352933738  3.251766171
 H  6.450992122  4.773903178  4.519646188
 H  4.497149044  7.805359949  1.919681484
 B -3.774265457 -4.259183617 -2.509562205
 O -4.248472929 -5.320254934 -1.754043230
 B -5.082453471 -6.264240871 -2.303094029
 O -4.160882810 -4.170146173 -3.837775298
 B -4.994415613 -5.108183677 -4.397595331
 O -5.453344655 -6.154432066 -3.626217577
 H -5.480040424 -7.166487632 -1.645079312
 H -5.316542376 -5.019499088 -5.534906811
 B  3.865142398 -3.599002027 -3.288676473
 O  4.134605792 -4.899373502 -2.891212648
 B  4.987428132 -5.698814802 -3.613485060
 O  4.477618479 -3.119418943 -4.436031597
 B  5.332208996 -3.909661621 -5.166292728
 O  5.584585302 -5.199763709 -4.751301164
 H  5.208824756 -6.808861068 -3.261506663
 H  5.849135277 -3.486113977 -6.145324201
