     101
<yaff.system.System object at 0x7f52cddc0090>
Si -0.000000000  0.000000000 -0.000000000
 C -0.334711000 -3.282421000 -2.523411000
 C -3.282421000  0.334711000  2.523412000
 C  0.334711000  3.282422000 -2.523411000
 C  3.282421000 -0.334711000  2.523412000
 C -1.442915000 -2.894269000 -1.866366000
 C -2.894268000  1.442915000  1.866365000
 C  1.442915000  2.894269000 -1.866366000
 C  2.894269000 -1.442914000  1.866365000
 C -1.355721000 -1.850757000 -1.055712000
 C -1.850756000  1.355721000  1.055713000
 C  1.355722000  1.850757000 -1.055712000
 C  1.850757000 -1.355721000  1.055713000
 C -0.132197000 -1.201023000 -0.847056000
 C -1.201023000  0.132197000  0.847056000
 C  0.132198000  1.201023000 -0.847056000
 C  1.201024000 -0.132198000  0.847056000
 C  0.964755000 -1.566674000 -1.552049000
 C -1.566674000 -0.964756000  1.552050000
 C -0.964756000  1.566674000 -1.552049000
 C  1.566675000  0.964754000  1.552050000
 C  0.874751000 -2.604561000 -2.363589000
 C -2.604559000 -0.874752000  2.363589000
 C -0.874750000  2.604559000 -2.363589000
 C  2.604560000  0.874750000  2.363589000
 H -2.387983000 -3.392116000 -1.994223000
 H -3.392115000  2.387984000  1.994223000
 H  2.387983000  3.392116000 -1.994223000
 H  3.392116000 -2.387983000  1.994223000
 H -2.258597000 -1.552610000 -0.616202000
 H -1.552610000  2.258597000  0.616202000
 H  2.258598000  1.552609000 -0.616202000
 H  1.552610000 -2.258598000  0.616202000
 H  1.907010000 -1.051950000 -1.461484000
 H -1.051950000 -1.907011000  1.461484000
 H -1.907010000  1.051952000 -1.461484000
 H  1.051951000  1.907009000  1.461484000
 H  1.760751000 -2.888643000 -2.847495000
 H -2.888643000 -1.760751000  2.847496000
 H -1.760749000  2.888644000 -2.847495000
 H  2.888643000  1.760751000  2.847496000
 C -1.310539960 -6.080358618 -4.705151020
 C -2.133517319 -6.946775353 -5.401181093
 H -3.213963260 -6.851772711 -5.355991010
 C -1.518200752 -7.944622486 -6.163244874
 H -2.129224558 -8.647373678 -6.727210861
 C -0.113911637 -8.051328701 -6.210421825
 H  0.345026335 -8.835865424 -6.809701675
 C  0.694425853 -7.160893947 -5.497150051
 H  1.777407303 -7.230691172 -5.524093945
 C  0.059961317 -6.183007277 -4.753095596
 C  0.614583096 -5.123699937 -3.917517836
 C -1.641922142 -4.953648651 -3.839893087
 N -0.449853679 -4.412753503 -3.394501588
 O -2.805380192 -4.649073516 -3.644300250
 O  1.820636607 -5.011663832 -3.785375414
 C -6.309870950  1.219766294  4.418645630
 C -7.417893878  1.947186666  4.813072239
 H -7.666138889  2.891875614  4.339396947
 C -8.202162997  1.416341842  5.841751152
 H -9.083882650  1.956582338  6.182306028
 C -7.864466087  0.187817458  6.443688387
 H -8.488432937 -0.207613896  7.243411893
 C -6.738528788 -0.527377085  6.024400732
 H -6.466128479 -1.475016873  6.478518943
 C -5.981656718  0.019674485  5.004447856
 C -4.772704768 -0.475761804  4.355675464
 C -5.314038573  1.499385355  3.390009714
 N -4.414678343  0.449092455  3.392099750
 O -5.392974649  2.511161867  2.715669598
 O -4.270264589 -1.527407622  4.710884867
 C  1.310539780  6.080360796 -4.705149590
 C  2.133517108  6.946778416 -5.401178598
 H  3.213963090  6.851776846 -5.355987233
 C  1.518200458  7.944625008 -6.163243021
 H  2.129224238  8.647376862 -6.727208210
 C  0.113911293  8.051329828 -6.210421639
 H -0.345026744  8.835866152 -6.809701964
 C -0.694426163  7.160894202 -5.497150915
 H -1.777407649  7.230690351 -5.524096096
 C -0.059961542  6.183008094 -4.753095794
 C -0.614583264  5.123700123 -3.917518797
 C  1.641922050  4.953651077 -3.839891368
 N  0.449853595  4.412754700 -3.394501343
 O  2.805380170  4.649077082 -3.644297169
 O -1.820636822  5.011662804 -3.785377826
 C  6.309869402 -1.219766638  4.418647943
 C  7.417891547 -1.947187487  4.813075871
 H  7.666135959 -2.891877199  4.339401789
 C  8.202160681 -1.416342122  5.841754494
 H  9.083879733 -1.956582966  6.182310374
 C  7.864464557 -0.187816748  6.443690148
 H  8.488431404  0.207615014  7.243413455
 C  6.738528040  0.527378257  6.024401181
 H  6.466128342  1.475018807  6.478518168
 C  5.981655938 -0.019673866  5.004448626
 C  4.772704681  0.475762687  4.355675144
 C  5.314037222 -1.499386061  3.390011934
 N  4.414677880 -0.449092397  3.392100361
 O  5.392972726 -2.511163428  2.715673035
 O  4.270265242  1.527409346  4.710883104
