     118
<yaff.system.System object at 0x7f3bde001790>
 C -0.673043696 -0.061281087  0.099838696
 C  0.676216304  0.084438913 -0.077921304
 C -1.445563696  0.859668913  0.987758696
 C -1.208593696  0.910808913  2.368608696
 H -0.435593696  0.291168913  2.815748696
 C -1.956453696  1.762468913  3.184708696
 H -1.756043696  1.803278913  4.251888696
 C -2.958213696  2.558248913  2.631708696
 C -3.215433696  2.502618913  1.263248696
 H -4.001643696  3.116068913  0.831638696
 C -2.465153696  1.655188913  0.445338696
 H -2.681203696  1.618718913 -0.619611304
 C  1.423956304  1.217358913  0.545288696
 C  1.186576304  2.544388913  0.160958696
 H  0.432056304  2.771628913 -0.587751304
 C  1.910456304  3.588888913  0.739918696
 H  1.711366304  4.615018913  0.443058696
 C  2.886286304  3.315958913  1.697168696
 C  3.142086304  1.999178913  2.075248696
 H  3.907026304  1.784298913  2.816488696
 C  2.417466304  0.953908913  1.499138696
 H  2.631376304 -0.068851087  1.799648696
 C -1.412513696 -1.154241087 -0.600071304
 C -1.922953696 -2.232601087  0.134698696
 H -1.770443696 -2.283151087  1.209878696
 C -2.626883696 -3.253351087 -0.507091304
 H -3.013833696 -4.089711087  0.068518696
 C -2.834543696 -3.198741087 -1.884751304
 C -2.343603696 -2.122491087 -2.622201304
 H -2.507323696 -2.077791087 -3.695421304
 C -1.638713696 -1.101381087 -1.982691304
 H -1.261323696 -0.266561087 -2.567421304
 C  1.439886304 -0.894691087 -0.907871304
 C  1.681336304 -2.196721087 -0.447761304
 H  1.299246304 -2.515401087  0.518518696
 C  2.406656304 -3.098111087 -1.228831304
 H  2.581246304 -4.108341087 -0.868861304
 C  2.903116304 -2.703191087 -2.470121304
 C  2.679966304 -1.406181087 -2.930431304
 H  3.069876304 -1.097111087 -3.896341304
 C  1.955636304 -0.502771087 -2.150401304
 H  1.790596304  0.507088913 -2.517471304
 C -3.833915825  3.366976563  3.540219115
 O -3.613050004  3.383451148  4.749433729
 C -4.957773277  4.155415748  2.958342608
 C -5.812470765  4.865850323  3.708410173
 H -5.094285570  4.174119450  1.887963123
 N -5.830189151  5.015334803  5.068908949
 H -6.596154797  5.408364118  3.189514193
 C -6.709598587  5.756829339  5.875068847
 H -5.071861630  4.525025473  5.552017728
 C -7.820226905  6.451314158  5.377356130
 C -6.467616392  5.822073528  7.256098016
 C -8.659731776  7.182696514  6.225435364
 H -8.062791214  6.436712849  4.320627555
 C -8.400936903  7.233581063  7.591184404
 H -9.515457307  7.710924013  5.813377329
 C -7.303379843  6.552458585  8.107997865
 H -5.614545856  5.300373427  7.683762034
 H -9.052403693  7.801837686  8.249340541
 H -7.093541673  6.587759322  9.173582176
 C  3.858948547  4.299677435  2.273807095
 O  4.657216130  3.938588069  3.136150669
 C  3.853125525  5.706420970  1.779528923
 C  4.659209440  6.655343355  2.277124601
 H  3.185045725  5.984642694  0.978929316
 N  5.597420352  6.542356283  3.267382486
 H  4.580716414  7.648984620  1.847880148
 C  6.455765603  7.517998034  3.800707419
 H  5.688175680  5.596574486  3.649636622
 C  6.432650626  8.865575983  3.417273273
 C  7.400492572  7.132573640  4.764550116
 C  7.317756277  9.795134302  3.975338040
 H  5.723802084  9.226415566  2.680350982
 C  8.246013993  9.390969891  4.929184573
 H  7.277322039  10.834730762  3.661193852
 C  8.288003021  8.057807576  5.324874661
 H  7.454802629  6.095747232  5.088337493
 H  8.933417610  10.112577285  5.361912092
 H  9.010672073  7.733553256  6.068754155
 C -3.764107400 -4.255586646 -2.399799454
 O -4.111688062 -5.177346694 -1.664408944
 C -4.267538604 -4.164591684 -3.800352606
 C -5.063772193 -5.093673720 -4.348663716
 H -3.997403234 -3.313851104 -4.406953813
 N -5.555863627 -6.236989232 -3.779197185
 H -5.378718038 -4.934926031 -5.374988813
 C -6.394086596 -7.220409568 -4.329956281
 H -5.279548501 -6.368110871 -2.801795001
 C -6.830041063 -7.211818631 -5.661644034
 C -6.834748458 -8.269752565 -3.508524512
 C -7.673057109 -8.213387837 -6.156729923
 H -6.521456445 -6.430514370 -6.347256977
 C -8.097551073 -9.244075720 -5.324671134
 H -7.995001313 -8.183609297 -7.194297976
 C -7.678138368 -9.272938615 -3.998430055
 H -6.522848268 -8.312971838 -2.467540740
 H -8.752419522 -10.021211311 -5.708990868
 H -8.005846165 -10.074031745 -3.341463146
 C  3.800796510 -3.646198841 -3.212544659
 O  4.004226648 -4.774938489 -2.770033539
 C  4.425905846 -3.203264428 -4.491731750
 C  5.275782092 -3.970373530 -5.189643223
 H  4.183945903 -2.230458620 -4.891484076
 N  5.713265106 -5.235233384 -4.902668256
 H  5.675339716 -3.558081687 -6.110568877
 C  6.596677223 -6.059333236 -5.619265317
 H  5.311517340 -5.631333355 -4.047939347
 C  7.261792052 -5.656015482 -6.784803574
 C  6.826656700 -7.364998569 -5.158395237
 C  8.125685956 -6.521957619 -7.465067130
 H  7.129018863 -4.658721092 -7.189156270
 C  8.338866967 -7.811910754 -6.990294310
 H  8.630233482 -6.183050357 -8.365986638
 C  7.688695943 -8.234746473 -5.835243195
 H  6.328142116 -7.719827119 -4.259297491
 H  9.009097449 -8.484205687 -7.518787161
 H  7.848943662 -9.241141033 -5.458097625
