     106
<yaff.system.System object at 0x7eff68378c50>
 N  2.352349000  2.353581000 -0.106935000
 C  6.545223000 -0.623519000 -0.004651000
 C  6.506949000  0.766356000 -0.044129000
 C  5.306615000  1.457271000 -0.077805000
 C  0.694402000  4.134140000 -0.072345000
 C  1.449041000  5.302996000 -0.081392000
 C  0.768886000  6.499946000 -0.043424000
 C -0.626235000  6.535277000 -0.005295000
 H  5.286896000  2.448611000 -0.109470000
 H  2.441236000  5.283090000 -0.114024000
 C  1.088817000  2.739747000 -0.086507000
 C  2.736369000  1.084715000 -0.079459000
 C  5.384667000 -1.376044000  0.003193000
 C  4.142797000  0.701090000 -0.064827000
 C -0.702135000  4.169767000 -0.039486000
 C -1.384691000  5.381008000 -0.007912000
 N -0.045630000  1.976161000 -0.050973000
 N  1.967433000 -0.039198000 -0.045501000
 C  4.174325000 -0.691644000 -0.027748000
 H  5.418593000 -2.371732000  0.032937000
 C -1.152033000  2.783343000 -0.027790000
 H -2.386427000  5.423716000  0.012658000
 C  2.783446000 -1.134264000 -0.023299000
 N -2.427713000  2.413713000 -0.001479000
 N  2.427713000 -2.413713000  0.001480000
 C -2.783447000  1.134264000  0.023299000
 C  1.152032000 -2.783343000  0.027790000
 C -4.174325000  0.691644000  0.027749000
 N -1.967432000  0.039195000  0.045502000
 C  0.702135000 -4.169766000  0.039488000
 N  0.045631000 -1.976159000  0.050973000
 C -5.384669000  1.376042000 -0.003193000
 C -4.142797000 -0.701091000  0.064827000
 C -2.736369000 -1.084715000  0.079459000
 C -0.694402000 -4.134140000  0.072346000
 C  1.384691000 -5.381008000  0.007912000
 C -1.088817000 -2.739746000  0.086509000
 C -6.545223000  0.623518000  0.004651000
 H -5.418594000  2.371732000 -0.032936000
 C -5.306616000 -1.457273000  0.077805000
 N -2.352349000 -2.353581000  0.106936000
 C -1.449040000 -5.302996000  0.081393000
 C  0.626234000 -6.535278000  0.005295000
 H  2.386428000 -5.423717000 -0.012658000
 C -6.506949000 -0.766357000  0.044129000
 H -5.286899000 -2.448610000  0.109470000
 C -0.768887000 -6.499946000  0.043426000
 H -2.441237000 -5.283089000  0.114025000
 H  1.073860000 -0.054754000 -0.036968000
 H -1.073859000  0.054753000  0.036969000
 N  7.842010494  1.197977139  0.037424345
 O  7.797776945 -1.068187328 -0.048026207
 C  8.549684155  0.081000327  0.002757224
 C  10.743063184 -1.130306939 -0.063885722
 C  12.140978565 -1.112649406 -0.072624958
 H  10.231405552 -2.089277822 -0.111406832
 C  12.824507560  0.100094245 -0.014875873
 H  12.694712246 -2.046655170 -0.125958278
 C  12.113234250  1.295734552  0.052990430
 H  13.911427765  0.113525015 -0.023292470
 C  10.716146324  1.277356450  0.061276907
 H  12.642885130  2.243891373  0.098159166
 H  10.173006496  2.219988770  0.113002162
 C  10.011051056  0.065183068  0.001735274
 N -1.026163942  7.857875545  0.037454127
 O  1.238489762  7.764058625 -0.047996319
 C  0.106032469  8.540935200  0.002786966
 C  1.365050714  10.707280021 -0.063856207
 C  1.377990137  12.105247034 -0.072595622
 H  2.312594542  10.174758291 -0.111377209
 C  0.180495643  12.815152664 -0.014846678
 H  2.323890417  12.638407811 -0.125928972
 C -1.030424201  12.130215741  0.053019663
 H  0.190854833  13.902106482 -0.023263414
 C -1.042625120  10.733060215  0.061306319
 H -1.966762782  12.680489748  0.098188289
 H -1.996918048  10.210679542  0.113031602
 C  0.153827274  10.001605957  0.001764829
 N -7.843170797 -1.196253570  0.092554200
 O -7.796438302  1.069742322  0.004018964
 C -8.549579376 -0.078439833  0.059082003
 C -10.741683669  1.135517427 -0.000956957
 C -12.139642774  1.119593413 -0.004469768
 H -10.229014668  2.093787156 -0.051618239
 C -12.824459239 -0.092221033  0.057386253
 H -12.692409559  2.054220295 -0.056945227
 C -12.114425208 -1.288659996  0.124145358
 H -13.911419109 -0.104306023  0.053032983
 C -10.717294340 -1.272014964  0.127207565
 H -12.645082633 -2.236096244  0.172507325
 H -10.175138041 -2.215257230  0.178125525
 C -10.010919154 -0.060800005  0.063479467
 N  1.024415273 -7.858997927  0.092524417
 O -1.240015193 -7.762686178  0.003989076
 C -0.108590233 -8.540774399  0.059052262
 C -1.370230119 -10.705786705 -0.000986472
 C -1.384903722 -12.103759495 -0.004499104
 H -2.317050777 -10.172269125 -0.051647862
 C -0.188366452 -12.814932038  0.057357058
 H -2.331403851 -12.635939947 -0.056974534
 C  1.023324790 -12.131251660  0.124116125
 H -0.200072059 -13.901896060  0.053003927
 C  1.037259421 -10.734091131  0.127178153
 H  1.958920892 -12.682516271  0.172478202
 H  1.992140666 -10.212707168  0.178096085
 C -0.158206700 -10.001378149  0.063449911
