      42
<yaff.system.System object at 0x7eff683788d0>
 C -1.151396000 -0.698047143 -0.002001643
 C -1.151507000  0.697493857  0.002091357
 C -0.000162000  1.481133857  0.007248357
 C  1.151567000  0.698077857  0.001966357
 C  1.151679000 -0.697527143 -0.002112643
 C  0.000355000 -1.481135143 -0.007281643
 C -0.001334000  2.983199857  0.000955357
 C  0.001346000 -2.983199143 -0.000956643
 H -0.904956000 -3.372090143 -0.467379643
 H  0.870715000 -3.371989143 -0.533783643
 H  0.040870000 -3.372149143  1.022017357
 H  0.909136000  3.372062857  0.459125357
 H -0.050471000  3.372160857 -1.021592643
 H -0.865842000  3.372007857  0.541704357
 N -2.479939669 -1.111808372  0.065067395
 O -2.410188024  1.153654933 -0.021941321
 C -3.174973422  0.013095536  0.031004251
 C -5.354605811  1.249142922 -0.032301741
 C -6.752645538  1.247325229 -0.038400264
 H -4.832203694  2.202222885 -0.081409316
 C -7.449764360  0.042443307  0.021423713
 H -7.295858319  2.187513346 -0.091299998
 C -6.751960005 -1.161138925  0.088730408
 H -8.536780927  0.041327438  0.015060156
 C -5.354740365 -1.158591617  0.094377260
 H -7.292236068 -2.103203066  0.135512416
 H -4.822221540 -2.107286673  0.145694472
 C -4.636066542  0.045474508  0.032720548
 N  2.480096795  1.111829354  0.064862338
 O  2.410376774 -1.153636548 -0.022104086
 C  3.175146718 -0.013064067  0.030782813
 C  5.354795547 -1.249077822 -0.032613720
 C  6.752834931 -1.247237969 -0.038783897
 H  4.832406094 -2.202166944 -0.081678243
 C  7.449937626 -0.042343922  0.020983774
 H  7.296059974 -2.187418338 -0.091695392
 C  6.752117551  1.161228346  0.088305649
 H  8.536953848 -0.041210851  0.014564509
 C  5.354898244  1.158658884  0.094024126
 H  7.292381007  2.103301891  0.135043878
 H  4.822366939  2.107346336  0.145352405
 C  4.636240440 -0.045419741  0.032424810
