      69
<yaff.system.System object at 0x7f3bde001cd0>
 C  1.214670000 -0.706990000 -0.100210000
 C -0.003630000 -1.377070000 -0.034780000
 O -0.065580000 -2.740060000 -0.060670000
 C -1.202870000 -0.677230000  0.059480000
 C -1.171390000  0.714080000  0.087980000
 O -2.318460000  1.447630000  0.179540000
 C  0.034640000  1.405600000  0.023800000
 C  1.221460000  0.684370000 -0.070160000
 O  2.430470000  1.313820000 -0.136030000
 H -3.072450000  0.835100000  0.215630000
 H  2.278920000  2.273550000 -0.105640000
 H  0.839910000 -3.087250000 -0.127960000
 H  7.667821406 -1.386686821 -0.478472187
 C  7.721184206 -2.471663568 -0.401623726
 C  8.974851765 -3.089501736 -0.423961301
 H  9.875066729 -2.486751803 -0.516368554
 C  9.070086865 -4.474848491 -0.326685133
 H  10.044463640 -4.957093392 -0.344547022
 C  7.914272856 -5.241092310 -0.200630663
 H  7.989293589 -6.323202993 -0.118830781
 C  6.658097962 -4.624572895 -0.173129052
 H  5.795243922 -5.269537881 -0.054596867
 C  6.545712581 -3.230931166 -0.281583621
 C  5.242173205 -2.491461765 -0.265586422
 O  5.235051671 -1.262733838 -0.227770133
 C  3.966158899 -3.261555337 -0.310481566
 C  2.761189239 -2.676260374 -0.252998038
 H  3.998114685 -4.336121326 -0.405267846
 N  2.465717430 -1.343239641 -0.156206470
 H  1.891680212 -3.324240052 -0.295557481
 H  3.288589661 -0.733633079 -0.145293441
 H -5.164430843 -5.830300594  0.070980576
 C -6.113669964 -5.304635893  0.163444239
 C -7.295158158 -6.049295505  0.222376637
 H -7.255000846 -7.134882386  0.176310643
 C -8.521362634 -5.401203532  0.341193248
 H -9.441405735 -5.978919205  0.386520787
 C -8.566104637 -4.011056970  0.407646488
 H -9.523999628 -3.505104595  0.506298615
 C -7.384221326 -3.263344869  0.353735972
 H -7.478778463 -2.186309766  0.428576738
 C -6.142456307 -3.901676072  0.222651832
 C -4.831561453 -3.178493139  0.153031874
 O -3.779278082 -3.813647679  0.176086691
 C -4.823842360 -1.691604480  0.041790143
 C -3.694059520 -0.969806043  0.021194500
 H -5.760042279 -1.160767314 -0.038455061
 N -2.400052929 -1.411516784  0.084873638
 H -3.794284404  0.107338007 -0.065122281
 H -2.309484627 -2.430294300  0.137292328
 H -2.389142242  7.436146356 -0.053810645
 C -1.454303035  7.987588286  0.035157167
 C -1.495204370  9.384227485  0.075547112
 H -2.450283317  9.900795292  0.018842009
 C -0.314250639  10.112288827  0.189533848
 H -0.344236846  11.198766934  0.220444090
 C  0.905347818  9.445143592  0.269672368
 H  1.827587077  10.014139468  0.364547572
 C  0.948656779  8.046678812  0.234338478
 H  1.923909422  7.581680254  0.319223288
 C -0.231752270  7.300095772  0.108329037
 C -0.275085115  5.802798578  0.058237217
 O -1.357056503  5.219793615  0.084623457
 C  1.001867997  5.038970434 -0.037833121
 C  1.049212428  3.698978917 -0.040602455
 H  1.935226585  5.574282163 -0.121384156
 N  0.010784117  2.810040583  0.030613770
 H  2.028087115  3.236684426 -0.116911500
 H -0.912783447  3.250539245  0.073530502
