      87
<yaff.system.System object at 0x7f52cdd92fd0>
 N  1.048041667 -2.362353333 -0.827760000
 C  0.687191667 -1.111843333 -0.380820000
 C -0.707988333 -1.156633333 -0.350020000
 N -1.140578333 -2.423203333 -0.704650000
 C -1.452748333 -0.004173333  0.016440000
 C -2.937038333  0.018916667  0.013290000
 C -0.690808333  1.125556667  0.389200000
 H -1.190148333  2.031256667  0.727650000
 C  0.707131667  1.132496667  0.363290000
 H  1.218751667  2.041706667  0.676780000
 C  1.457221667  0.014596667 -0.038090000
 C  2.930271667  0.035566667 -0.088570000
 C -3.644438333  1.216186667 -0.227900000
 C  3.614231667  1.150886667 -0.607650000
 C  3.709801667 -1.028743333  0.397570000
 C -3.714278333 -1.126953333  0.257540000
 C -5.114658333 -1.083173333  0.260860000
 H -3.237768333 -2.085023333  0.454110000
 C  5.107441667 -0.993503333  0.339110000
 H  3.237601667 -1.893393333  0.858000000
 C -5.778958333  0.116916667  0.034260000
 H -5.680408333 -1.992973333  0.442850000
 C -5.043148333  1.269606667 -0.208850000
 H -3.111798333  2.138136667 -0.449260000
 C  5.011001667  1.198966667 -0.646670000
 H  3.058831667  2.004406667 -0.992550000
 C  5.757241667  0.121996667 -0.180560000
 H  5.688571667 -1.831683333  0.715280000
 H  5.511931667  2.079726667 -1.040580000
 H -5.551588333  2.212836667 -0.390060000
 C -0.066158333 -3.157953333 -0.916690000
 H  1.993111667 -2.657013333 -1.011250000
 C -0.040848333 -4.599613333 -1.196060000
 C -1.251718333 -5.281883333 -1.390290000
 C -1.273518333 -6.658563333 -1.631550000
 H -2.193238333 -4.735723333 -1.348080000
 C  1.151281667 -5.339883333 -1.242140000
 C -0.081488333 -7.375973333 -1.679350000
 H -2.223038333 -7.167013333 -1.777580000
 C  1.130121667 -6.718103333 -1.483600000
 H  2.116521667 -4.871123333 -1.078620000
 H  2.060961667 -7.279213333 -1.512890000
 C -9.382644873  0.802391916 -0.256004692
 C -10.544951873  1.478659474 -0.578699882
 H -10.512605118  2.452935158 -1.056373050
 C -11.757841091  0.856881030 -0.266696846
 H -12.696568064  1.354471937 -0.504314026
 C -11.779601598 -0.408785589  0.352378504
 H -12.734895865 -0.875201402  0.587170806
 C -10.588771224 -1.070644960  0.666870738
 H -10.589930960 -2.045948695  1.143554831
 C -9.403893728 -0.433839544  0.345983216
 C -8.021611872 -0.857494684  0.540252984
 C -7.986624717  1.177231968 -0.452431398
 N -7.210346476  0.144961723  0.041308011
 O -7.702522216  2.236718274 -0.982932803
 O -7.773999473 -1.925014631  1.072857944
 C  9.382644873 -0.802391916  0.256004692
 C  10.544951873 -1.478659474  0.578699882
 H  10.512605118 -2.452935158  1.056373050
 C  11.757841091 -0.856881030  0.266696846
 H  12.696568064 -1.354471937  0.504314026
 C  11.779601598  0.408785589 -0.352378504
 H  12.734895865  0.875201402 -0.587170806
 C  10.588771224  1.070644960 -0.666870738
 H  10.589930960  2.045948695 -1.143554831
 C  9.403893728  0.433839544 -0.345983216
 C  8.021611872  0.857494684 -0.540252984
 C  7.986624717 -1.177231968  0.452431398
 N  7.210346476 -0.144961723 -0.041308011
 O  7.702522216 -2.236718274  0.982932803
 O  7.773999473  1.925014631 -1.072857944
 C -0.773573775 -10.846333532 -2.688460706
 C -1.481827206 -11.933520863 -3.166820760
 H -2.518322247 -11.836169925 -3.474443746
 C -0.809340782 -13.157305655 -3.238705226
 H -1.329801254 -14.038462878 -3.610121176
 C  0.536760426 -13.263727887 -2.835808656
 H  1.041706781 -14.226136638 -2.899502039
 C  1.229277185 -12.147555361 -2.356622258
 H  2.266376609 -12.214292857 -2.042906880
 C  0.540806981 -10.949665435 -2.297519629
 C  0.977854258 -9.630328546 -1.854498857
 C -1.185786897 -9.459817292 -2.499744389
 N -0.096228561 -8.771507795 -1.998684474
 O -2.316704048 -9.109245177 -2.787464383
 O  2.112619103 -9.463678656 -1.443262501
