      52
<yaff.system.System object at 0x7f193a16d790>
 C  0.000149000  3.538221000  0.000000000
 C -1.208314000  2.825814000  0.000000000
 C -1.234523000  1.426499000  0.000000000
 C  0.000173000  0.711855000  0.000000000
 C  1.234878000  1.426489000  0.000000000
 C  1.208633000  2.825798000  0.000000000
 H -2.147734000  3.368891000  0.000000000
 H  2.148055000  3.368886000  0.000000000
 C  0.000167000 -0.711882000  0.000000000
 C -1.234536000 -1.426518000  0.000000000
 C -1.208310000 -2.825825000  0.000000000
 C  0.000175000 -3.538236000  0.000000000
 C  1.208656000 -2.825835000  0.000000000
 C  1.234871000 -1.426526000  0.000000000
 H -2.147732000 -3.368910000  0.000000000
 H  2.148078000 -3.368915000  0.000000000
 C  2.463326000  0.679235000  0.000000000
 C  2.463326000 -0.679271000  0.000000000
 H  3.399127000  1.228117000  0.000000000
 H  3.399123000 -1.228155000  0.000000000
 C -2.462978000  0.679245000  0.000000000
 C -2.462987000 -0.679261000  0.000000000
 H -3.398774000  1.228133000  0.000000000
 H -3.398787000 -1.228142000  0.000000000
 C  0.836099307  9.926285236 -0.212037559
 C  1.740493262  9.281306278  0.633737451
 C -0.017145052  9.168326916 -1.013061361
 C  0.015512007  7.777291442 -0.958571304
 C  0.911577819  7.124453697 -0.096365628
 C  1.792245156  7.892632744  0.679430179
 C -0.043190048  5.003998104 -0.025593073
 N  1.009860208  5.725880440 -0.010308323
 H  2.415526741  9.863602090  1.250962251
 H -0.704913055  9.661219210 -1.691358083
 H -0.626428280  7.192787137 -1.607775174
 H  2.499892321  7.379739648  1.320014296
 H -1.047371822  5.450083325 -0.043422715
 H  0.808388762  11.008809539 -0.257915655
 C -0.836099307 -9.926285236  0.212037559
 C -1.740493262 -9.281306278 -0.633737451
 C  0.017145052 -9.168326916  1.013061361
 C -0.015512007 -7.777291442  0.958571304
 C -0.911577819 -7.124453697  0.096365628
 C -1.792245156 -7.892632744 -0.679430179
 C  0.043190048 -5.003998104  0.025593073
 N -1.009860208 -5.725880440  0.010308323
 H -2.415526741 -9.863602090 -1.250962251
 H  0.704913055 -9.661219210  1.691358083
 H  0.626428280 -7.192787137  1.607775174
 H -2.499892321 -7.379739648 -1.320014296
 H  1.047371822 -5.450083325  0.043422715
 H -0.808388762 -11.008809539  0.257915655
