      54
<yaff.system.System object at 0x7eff68378ed0>
 C  1.212954000  0.700272000  0.000000000
 C  1.208877000 -0.698223000  0.000000000
 C -0.000137000 -1.400767000  0.000000000
 C -1.209188000 -0.698053000  0.000000000
 C -1.213163000  0.700261000  0.000000000
 C  0.000000000  1.395989000  0.000000000
 H -2.145136000 -1.238581000  0.000000000
 H -0.000098000  2.476797000  0.000000000
 H  2.144938000 -1.238545000  0.000000000
 B  2.571913093  1.498283883  0.034968827
 O  2.578529279  2.838824045  0.014572024
 O  3.745426155  0.849041742  0.052557417
Si  3.555165441  4.092737474 -0.155972593
Si  5.320820319  1.087227692 -0.073217621
 O  4.592882682  4.054019412  1.059018911
 O  4.396435346  3.865684208 -1.496641107
 H  2.807238471  5.357269948 -0.196295435
 O  5.575282087  1.881501933 -1.436907324
 O  5.753300552  2.058122712  1.121033748
 H  6.061885029 -0.181592312 -0.039668928
 B  5.505175891  3.266524991  1.645190093
 H  5.871857269  3.514044080  2.739559720
 B  5.224188976  2.996203348 -2.092881407
 H  5.382986797  3.054961340 -3.261054176
 B -2.583830701  1.477990281  0.034968827
 O -3.748004077  0.813315886  0.014572024
 O -2.608481497  2.818900644  0.052557417
Si -5.322268238  1.031969568 -0.155972593
Si -3.602597089  4.064024537 -0.073217621
 O -5.807701775  1.949962183  1.059018911
 O -5.546366288  1.874031504 -1.496641107
 H -6.043274559 -0.248103482 -0.196295435
 O -4.417669277  3.887163888 -1.436907324
 O -4.659644175  3.952994139  1.121033748
 H -2.874446089  5.340299285 -0.039668928
 B -5.581994564  3.133804494  1.645190093
 H -5.979715392  3.327554529  2.739559720
 B -5.207383238  3.025666658 -2.092881407
 H -5.337680518  3.133795602 -3.261054176
 B  0.011354508 -2.976666974  0.034968827
 O  1.168933550 -3.652760504  0.014572024
 O -1.137718171 -3.668245055  0.052557417
Si  1.766417188 -5.125557293 -0.155972593
Si -1.719260193 -5.151622348 -0.073217621
 O  1.213956596 -6.004843057  1.059018911
 O  1.149098577 -5.740541823 -1.496641107
 H  3.235499165 -5.110218640 -0.196295435
 O -1.158679373 -5.769175184 -1.436907324
 O -1.094750143 -6.011659260  1.121033748
 H -3.188623497 -5.158874322 -0.039668928
 B  0.075787755 -6.401072851  1.645190093
 H  0.106769177 -6.842390293  2.739559720
 B -0.017793572 -6.022562650 -2.092881407
 H -0.046320074 -6.189462285 -3.261054176
