      62
<yaff.system.System object at 0x7f1939dfb990>
 C  0.000149000  3.538221000  0.000000000
 C -1.208314000  2.825814000  0.000000000
 C -1.234523000  1.426499000  0.000000000
 C  0.000173000  0.711855000  0.000000000
 C  1.234878000  1.426489000  0.000000000
 C  1.208633000  2.825798000  0.000000000
 H -2.147734000  3.368891000  0.000000000
 H  2.148055000  3.368886000  0.000000000
 C  0.000167000 -0.711882000  0.000000000
 C -1.234536000 -1.426518000  0.000000000
 C -1.208310000 -2.825825000  0.000000000
 C  0.000175000 -3.538236000  0.000000000
 C  1.208656000 -2.825835000  0.000000000
 C  1.234871000 -1.426526000  0.000000000
 H -2.147732000 -3.368910000  0.000000000
 H  2.148078000 -3.368915000  0.000000000
 C  2.463326000  0.679235000  0.000000000
 C  2.463326000 -0.679271000  0.000000000
 H  3.399127000  1.228117000  0.000000000
 H  3.399123000 -1.228155000  0.000000000
 C -2.462978000  0.679245000  0.000000000
 C -2.462987000 -0.679261000  0.000000000
 H -3.398774000  1.228133000  0.000000000
 H -3.398787000 -1.228142000  0.000000000
 H -2.587557919  9.499234927 -0.135347646
 C -1.668417431  10.076811661 -0.048666070
 C -1.747644657  11.472097940 -0.020301234
 H -2.716340755  11.961810370 -0.083887148
 C -0.587387732  12.233175157  0.090529017
 H -0.647187794  13.318646665  0.112089415
 C  0.649782978  11.600391647  0.179517827
 H  1.555831137  12.195219918  0.271924119
 C  0.731452606  10.203389259  0.156230662
 H  1.718823675  9.766015883  0.247607407
 C -0.427718932  9.423711180  0.033537642
 C -0.414569645  7.926368438  0.068127913
 O -1.418754286  7.318170461  0.432766820
 C  0.793810107  7.191618632 -0.404347789
 C  0.877792353  5.853421191 -0.403338528
 H  1.640502742  7.747308910 -0.777198396
 N -0.062157931  4.941488384 -0.005232398
 H  1.799627138  5.413293076 -0.769730111
 H -0.940935812  5.360431241  0.312720869
 H  2.587557919 -9.499234927  0.135347646
 C  1.668417431 -10.076811661  0.048666070
 C  1.747644657 -11.472097940  0.020301234
 H  2.716340755 -11.961810370  0.083887148
 C  0.587387732 -12.233175157 -0.090529017
 H  0.647187794 -13.318646665 -0.112089415
 C -0.649782978 -11.600391647 -0.179517827
 H -1.555831137 -12.195219918 -0.271924119
 C -0.731452606 -10.203389259 -0.156230662
 H -1.718823675 -9.766015883 -0.247607407
 C  0.427718932 -9.423711180 -0.033537642
 C  0.414569645 -7.926368438 -0.068127913
 O  1.418754286 -7.318170461 -0.432766820
 C -0.793810107 -7.191618632  0.404347789
 C -0.877792353 -5.853421191  0.403338528
 H -1.640502742 -7.747308910  0.777198396
 N  0.062157931 -4.941488384  0.005232398
 H -1.799627138 -5.413293076  0.769730111
 H  0.940935812 -5.360431241 -0.312720869
