      46
<yaff.system.System object at 0x7ffb67ef9550>
 C -0.000000000  3.577958000 -0.000000182
 C  1.133739000  2.852350000 -0.402520182
 C  1.135339000  1.463226000 -0.401762182
 C -0.000000000  0.741600000 -0.000000182
 C -1.135339000  1.463225000  0.401761818
 C -1.133738000  2.852349000  0.402519818
 C -0.000000000 -0.741600000 -0.000000182
 C -1.135339000 -1.463226000 -0.401762182
 C -1.133739000 -2.852350000 -0.402520182
 C -0.000000000 -3.577958000 -0.000000182
 C  1.133738000 -2.852349000  0.402519818
 C  1.135339000 -1.463225000  0.401761818
 H -2.020512000 -3.385811000 -0.727052182
 H -2.020512000  3.385812000  0.727052818
 H  2.020512000 -3.385812000  0.727052818
 H  2.020512000  3.385811000 -0.727052182
 H -2.015826000 -0.929067000 -0.740072182
 H -2.015827000  0.929068000  0.740072818
 H  2.015826000  0.929067000 -0.740072182
 H  2.015827000 -0.929068000  0.740072818
 H -1.177700609  10.399748645  0.171113273
 C -0.664090915  9.448041044  0.045656349
 C  0.674670052  9.439461011 -0.367844866
 H  1.184049305  10.382172195 -0.558554537
 C  1.372597458  8.234258047 -0.541912856
 H  2.408265687  8.223131850 -0.862327162
 C  0.692288037  7.035668270 -0.292195643
 N  1.102276203  5.730026037 -0.377920030
 C -0.630333519  7.087828575  0.114059404
 O -1.065089405  5.807114066  0.286416894
 C -1.356553728  8.257599553  0.300272354
 H -2.390758585  8.243805605  0.619509254
 C  0.029398223  5.038799141 -0.030386959
 H  1.177700656 -10.399750636  0.171113482
 C  0.664090927 -9.448043042  0.045656649
 C -0.674670152 -9.439463030 -0.367844204
 H -1.184049456 -10.382174223 -0.558553688
 C -1.372597605 -8.234260075 -0.541912065
 H -2.408265921 -8.223133894 -0.862326090
 C -0.692288117 -7.035670284 -0.292195098
 N -1.102276306 -5.730028056 -0.377919440
 C  0.630333550 -7.087830569  0.114059593
 O  1.065089483 -5.807116052  0.286416901
 C  1.356553809 -8.257601538  0.300272405
 H  2.390758753 -8.243807573  0.619509025
 C -0.029398232 -5.038801142 -0.030386695
