      74
<yaff.system.System object at 0x7eff68378ed0>
 C -0.673043696 -0.061281087  0.099838696
 C  0.676216304  0.084438913 -0.077921304
 C -1.445563696  0.859668913  0.987758696
 C -1.208593696  0.910808913  2.368608696
 H -0.435593696  0.291168913  2.815748696
 C -1.956453696  1.762468913  3.184708696
 H -1.756043696  1.803278913  4.251888696
 C -2.958213696  2.558248913  2.631708696
 C -3.215433696  2.502618913  1.263248696
 H -4.001643696  3.116068913  0.831638696
 C -2.465153696  1.655188913  0.445338696
 H -2.681203696  1.618718913 -0.619611304
 C  1.423956304  1.217358913  0.545288696
 C  1.186576304  2.544388913  0.160958696
 H  0.432056304  2.771628913 -0.587751304
 C  1.910456304  3.588888913  0.739918696
 H  1.711366304  4.615018913  0.443058696
 C  2.886286304  3.315958913  1.697168696
 C  3.142086304  1.999178913  2.075248696
 H  3.907026304  1.784298913  2.816488696
 C  2.417466304  0.953908913  1.499138696
 H  2.631376304 -0.068851087  1.799648696
 C -1.412513696 -1.154241087 -0.600071304
 C -1.922953696 -2.232601087  0.134698696
 H -1.770443696 -2.283151087  1.209878696
 C -2.626883696 -3.253351087 -0.507091304
 H -3.013833696 -4.089711087  0.068518696
 C -2.834543696 -3.198741087 -1.884751304
 C -2.343603696 -2.122491087 -2.622201304
 H -2.507323696 -2.077791087 -3.695421304
 C -1.638713696 -1.101381087 -1.982691304
 H -1.261323696 -0.266561087 -2.567421304
 C  1.439886304 -0.894691087 -0.907871304
 C  1.681336304 -2.196721087 -0.447761304
 H  1.299246304 -2.515401087  0.518518696
 C  2.406656304 -3.098111087 -1.228831304
 H  2.581246304 -4.108341087 -0.868861304
 C  2.903116304 -2.703191087 -2.470121304
 C  2.679966304 -1.406181087 -2.930431304
 H  3.069876304 -1.097111087 -3.896341304
 C  1.955636304 -0.502771087 -2.150401304
 H  1.790596304  0.507088913 -2.517471304
 C -3.886879675  3.361355527  3.457880006
 N -4.910543459  3.981378950  2.845004569
 C -5.708867476  4.686581376  3.640319095
 N -3.662276237  3.432375054  4.781733188
 C -4.530251241  4.168197414  5.468904540
 N -5.578000198  4.823847681  4.962458425
 H -4.372428486  4.242848014  6.541291324
 H -6.544639998  5.198218815  3.171057217
 C  3.792680309  4.357280981  2.230139641
 N  3.662239155  5.612788199  1.766869071
 C  4.504509328  6.501942961  2.283726554
 N  4.703098058  3.997760173  3.152073498
 C  5.487232915  4.977035956  3.591585825
 N  5.443319359  6.253543370  3.200762027
 H  6.232348388  4.714365240  4.337441827
 H  4.421083664  7.524805333  1.926952096
 C -3.732561936 -4.212143034 -2.481860594
 N -4.075415848 -4.076244133 -3.774886337
 C -4.883533865 -5.017396536 -4.252729740
 N -4.162443642 -5.220101059 -1.702566000
 C -4.965672832 -6.097364786 -2.296073239
 N -5.367915959 -6.057654158 -3.569166461
 H -5.328107904 -6.922533747 -1.689252711
 H -5.176674444 -4.932035809 -5.295455704
 C  3.822480357 -3.559245465 -3.252361937
 N  4.388563473 -3.042497945 -4.357103896
 C  5.203876941 -3.859971918 -5.016009916
 N  4.047485498 -4.812678815 -2.820673101
 C  4.881807780 -5.531305875 -3.565321407
 N  5.496692077 -5.118237321 -4.676822414
 H  5.081649268 -6.548314994 -3.239361316
 H  5.675194240 -3.467903153 -5.913025733
