     106
<yaff.system.System object at 0x7eff68378c90>
 N  2.352349000  2.353581000 -0.106935000
 C  6.545223000 -0.623519000 -0.004651000
 C  6.506949000  0.766356000 -0.044129000
 C  5.306615000  1.457271000 -0.077805000
 C  0.694402000  4.134140000 -0.072345000
 C  1.449041000  5.302996000 -0.081392000
 C  0.768886000  6.499946000 -0.043424000
 C -0.626235000  6.535277000 -0.005295000
 H  5.286896000  2.448611000 -0.109470000
 H  2.441236000  5.283090000 -0.114024000
 C  1.088817000  2.739747000 -0.086507000
 C  2.736369000  1.084715000 -0.079459000
 C  5.384667000 -1.376044000  0.003193000
 C  4.142797000  0.701090000 -0.064827000
 C -0.702135000  4.169767000 -0.039486000
 C -1.384691000  5.381008000 -0.007912000
 N -0.045630000  1.976161000 -0.050973000
 N  1.967433000 -0.039198000 -0.045501000
 C  4.174325000 -0.691644000 -0.027748000
 H  5.418593000 -2.371732000  0.032937000
 C -1.152033000  2.783343000 -0.027790000
 H -2.386427000  5.423716000  0.012658000
 C  2.783446000 -1.134264000 -0.023299000
 N -2.427713000  2.413713000 -0.001479000
 N  2.427713000 -2.413713000  0.001480000
 C -2.783447000  1.134264000  0.023299000
 C  1.152032000 -2.783343000  0.027790000
 C -4.174325000  0.691644000  0.027749000
 N -1.967432000  0.039195000  0.045502000
 C  0.702135000 -4.169766000  0.039488000
 N  0.045631000 -1.976159000  0.050973000
 C -5.384669000  1.376042000 -0.003193000
 C -4.142797000 -0.701091000  0.064827000
 C -2.736369000 -1.084715000  0.079459000
 C -0.694402000 -4.134140000  0.072346000
 C  1.384691000 -5.381008000  0.007912000
 C -1.088817000 -2.739746000  0.086509000
 C -6.545223000  0.623518000  0.004651000
 H -5.418594000  2.371732000 -0.032936000
 C -5.306616000 -1.457273000  0.077805000
 N -2.352349000 -2.353581000  0.106936000
 C -1.449040000 -5.302996000  0.081393000
 C  0.626234000 -6.535278000  0.005295000
 H  2.386428000 -5.423717000 -0.012658000
 C -6.506949000 -0.766357000  0.044129000
 H -5.286899000 -2.448610000  0.109470000
 C -0.768887000 -6.499946000  0.043426000
 H -2.441237000 -5.283089000  0.114025000
 H  1.073860000 -0.054754000 -0.036968000
 H -1.073859000  0.054753000  0.036969000
 B  8.620660682  0.095585957 -0.028313417
 C  10.156250374  0.113327084 -0.031174198
 C  10.859661920  1.329675082 -0.033264131
 C  10.887684332 -1.086398823 -0.031758799
 C  12.251412698  1.346952802 -0.035858871
 C  12.279464963 -1.071390868 -0.034353133
 C  12.962024433  0.145856599 -0.036404831
 O  7.813918084  1.234555523 -0.027539495
 O  7.840429709 -1.061693421 -0.026108546
 H  12.783173207  2.291869657 -0.037455430
 H  12.832997628 -2.003723875 -0.034780849
 H  10.357025733 -2.032291737 -0.030164663
 H  10.307205028  2.263000873 -0.032840057
 H  14.046484107  0.158432849 -0.038426550
 B  0.093003622  8.612213924 -0.028283685
 C  0.108872409  10.147824105 -0.031144663
 C -1.091790446  10.877686397 -0.033234740
 C  1.324318079  10.852827446 -0.031729305
 C -1.078606211  12.269481971 -0.035829658
 C  1.339772189  12.244603194 -0.034323817
 C  0.137753743  12.953638088 -0.036375656
 O -1.063348352  7.830590355 -0.027509711
 O  1.232930846  7.806843293 -0.026078663
 H -2.011659432  12.821794192 -0.037426326
 H  2.283995712  12.777599617 -0.034751562
 H  2.258371240  10.301595512 -0.030135059
 H -2.036982971  10.345787216 -0.032810636
 H  0.148913399  14.038113265 -0.038397514
 B -8.620689196 -0.092976755  0.028294604
 C -10.156299765 -0.108804985  0.031172790
 C -10.861225949 -1.324275801  0.033268913
 C -10.886238652  1.091831137  0.031764644
 C -12.252997144 -1.339819806  0.035877114
 C -12.278036877  1.078556932  0.034370437
 C -12.962112122 -0.137839328  0.036428334
 O -7.815366007 -1.232950382  0.027533436
 O -7.839017189  1.063329807  0.026103595
 H -12.785934309 -2.284073516  0.037477826
 H -12.830407707  2.011578749  0.034801579
 H -10.354402186  2.037062276  0.030164353
 H -10.309932132 -2.258289062  0.032839413
 H -14.046586603 -0.149064660  0.038459632
 B -0.095613002 -8.612185328  0.028264873
 C -0.113394816 -10.147774517  0.031143255
 C  1.086357857 -10.879131989  0.033239521
 C -1.329717824 -10.851263121  0.031735149
 C  1.071439757 -12.270910034  0.035847900
 C -1.346905773 -12.243018516  0.034341121
 C -0.145771563 -12.953550295  0.036399159
 O  1.061711796 -7.832002900  0.027503652
 O -1.234536037 -7.805395200  0.026073713
 H  2.003804193 -12.824384194  0.037448722
 H -2.291792559 -12.774838226  0.034772292
 H -2.263083544 -10.298868004  0.030134749
 H  2.032212281 -10.348410731  0.032809993
 H -0.158282231 -14.038010710  0.038430595
