      78
<yaff.system.System object at 0x7f52bc889d90>
 C  2.750545300  0.714052633  0.000000000
 C  3.967385300  1.427232633  0.000000000
 C  5.134923300  0.697167633  0.000000000
 C  5.134905300 -0.697294367  0.000000000
 C  3.967338300 -1.427295367  0.000000000
 C  2.750523300 -0.714054367  0.000000000
 H  3.973029300  2.508793633  0.000000000
 H  3.972857300 -2.508858367  0.000000000
 C  1.523744300 -1.428965367  0.000000000
 C  0.475695300 -2.034128367  0.000000000
 C -0.756889700 -2.739018367  0.000000000
 C -0.747637700 -4.149421367  0.000000000
 C -1.963640700 -4.795554367  0.000000000
 C -3.171301700 -4.098371367  0.000000000
 C -3.219770700 -2.722223367  0.000000000
 C -1.993726700 -2.024989367  0.000000000
 H  0.186211300 -4.695066367  0.000000000
 H -4.159213700 -2.186260367  0.000000000
 C -1.999634700 -0.605105367  0.000000000
 C  1.523820300  1.429081633  0.000000000
 C  0.475673300  2.034067633  0.000000000
 C -0.756847700  2.739067633  0.000000000
 C -0.747585700  4.149487633  0.000000000
 C -1.963575700  4.795616633  0.000000000
 C -3.171234700  4.098376633  0.000000000
 C -3.219715700  2.722243633  0.000000000
 C -1.993596700  2.025034633  0.000000000
 H  0.186303300  4.695069633  0.000000000
 H -4.159103700  2.186199633  0.000000000
 C -1.999479700  0.605114633  0.000000000
 C  6.523997363  1.132393711  0.002452522
 C  6.524553622 -1.131839845  0.004694686
 N  7.318180150  0.000465556  0.007821995
 O  6.790673174 -2.320829733  0.016553678
 O  6.789655530  2.321438254 -0.010873866
 C  8.749823353  0.000821882  0.018109317
 C  9.489787944 -1.154700302 -0.285500427
 H  9.009407885 -2.091509032 -0.550788722
 C  10.891076734 -1.156843950 -0.273387072
 H  11.430152330 -2.069512188 -0.515876054
 C  11.589889087 -0.000091932  0.045306300
 H  12.676317333 -0.000633348  0.056403362
 C  10.885877815  1.157334582  0.349730245
 H  11.420785634  2.069535935  0.602945519
 C  9.484614381  1.156189145  0.334668267
 H  8.999886193  2.093303387  0.590794534
 C -2.281259072 -6.216169866  0.002452522
 C -4.242431894 -5.084553735  0.004694686
 N -3.658627828 -6.338001541  0.007821995
 O -5.405190628 -4.720536297  0.016553678
 O -1.384337423 -7.040750210 -0.010873866
 C -4.374128884 -7.578025986  0.018109317
 C -5.744822138 -7.641106246 -0.285500427
 H -6.315940796 -6.756686054 -0.550788722
 C -6.447311294 -8.853592887 -0.273387072
 H -7.507242870 -8.864122150 -0.515876054
 C -5.794929423 -10.037151855  0.045306300
 H -6.338603356 -10.977760850  0.056403362
 C -4.440563323 -10.006160405  0.349730245
 H -3.918018821 -10.925499802  0.602945519
 C -3.740935291 -8.792051208  0.334668267
 H -2.687005986 -8.840811241  0.590794534
 C -4.242683723  5.083748279  0.002452522
 C -2.282078774  6.216348003  0.004694686
 N -3.659497355  6.337495186  0.007821995
 O -1.385443612  7.041309794  0.016553678
 O -5.405255362  4.719292009 -0.010873866
 C -4.375628311  7.577155962  0.018109317
 C -3.744899793  8.795745578 -0.285500427
 H -2.693409637  8.848129259 -0.550788722
 C -4.443688486  10.010368660 -0.273387072
 H -3.922832975  10.933556263 -0.515876054
 C -5.794871313  10.037181066  0.045306300
 H -6.337617138  10.978325899  0.056403362
 C -6.445225706  8.848775761  0.349730245
 H -7.502669165  8.855918190  0.602945519
 C -5.743601261  7.635819182  0.334668267
 H -6.312801358  6.747474783  0.590794534
